
     RDKit          3D

 31 33  0  0  0  0  0  0  0  0999 V2000
   25.8951   40.1219   97.7674 P   0  0  0  0  0  0  0  0  0  0  0  0
   23.7565   38.1334   97.1304 P   0  0  0  0  0  0  0  0  0  0  0  0
   21.6589   38.4294   99.0461 P   0  0  0  0  0  0  0  0  0  0  0  0
   28.0185   39.5051   99.1951 C   0  0  0  0  0  0  0  0  0  0  0  0
   26.6614   39.2257   98.8286 O   0  0  0  0  0  0  0  0  0  0  0  0
   28.6390   38.2688   99.7929 C   0  0  1  0  0  0  0  0  0  0  0  0
   28.0116   37.9842  101.0629 O   0  0  0  0  0  0  0  0  0  0  0  0
   28.3955   37.0266   98.9574 C   0  0  1  0  0  0  0  0  0  0  0  0
   29.4575   36.8706   98.0183 O   0  0  0  0  0  0  0  0  0  0  0  0
   28.4256   35.8980   99.9710 C   0  0  1  0  0  0  0  0  0  0  0  0
   29.7561   35.4806  100.1696 O   0  0  0  0  0  0  0  0  0  0  0  0
   27.8827   36.5873  101.2261 C   0  0  2  0  0  0  0  0  0  0  0  0
   24.7937   33.8314  104.2572 N   0  0  0  0  0  0  0  0  0  0  0  0
   26.9211   40.7448   96.8635 O   0  0  0  0  0  0  0  0  0  0  0  0
   24.2577   36.7270   97.3763 O   0  0  0  0  0  0  0  0  0  0  0  0
   21.3943   39.6850   99.8508 O   0  0  0  0  0  0  0  0  0  0  0  0
   26.1242   33.8915  104.1380 C   0  0  0  0  0  0  0  0  0  0  0  0
   24.9434   41.0029   98.5193 O   0  0  0  0  0  0  0  0  0  0  0  0
   22.6889   38.3722   96.0836 O   0  0  0  0  0  0  0  0  0  0  0  0
   20.9093   38.2829   97.7315 O   0  0  0  0  0  0  0  0  0  0  0  0
   26.8671   34.6428  103.3288 N   0  0  0  0  0  0  0  0  0  0  0  0
   25.0185   39.1095   96.8678 O   0  0  0  0  0  0  0  0  0  0  0  0
   23.1282   38.7001   98.4812 O   0  0  0  0  0  0  0  0  0  0  0  0
   21.9083   37.1647   99.8307 O   0  0  0  0  0  0  0  0  0  0  0  0
   26.0896   35.4097  102.5511 C   0  0  0  0  0  0  0  0  0  0  0  0
   24.7094   35.4662  102.5566 C   0  0  0  0  0  0  0  0  0  0  0  0
   24.0412   34.6277  103.4732 C   0  0  0  0  0  0  0  0  0  0  0  0
   22.7126   34.5810  103.6114 N   0  0  0  0  0  0  0  0  0  0  0  0
   24.2526   36.3735  101.6082 N   0  0  0  0  0  0  0  0  0  0  0  0
   25.3496   36.8350  101.0594 C   0  0  0  0  0  0  0  0  0  0  0  0
   26.4965   36.2942  101.5828 N   0  0  0  0  0  0  0  0  0  0  0  0
  1  5  1  0
  1 14  1  0
  1 18  2  0
  1 22  1  0
  2 15  1  0
  2 19  2  0
  2 22  1  0
  2 23  1  0
  3 16  1  0
  3 20  1  0
  3 23  1  0
  3 24  2  0
  6  4  1  6
  4  5  1  0
  6  7  1  0
  6  8  1  0
  7 12  1  0
  8  9  1  6
  8 10  1  0
 10 11  1  1
 10 12  1  0
 12 31  1  6
 13 17  2  0
 13 27  1  0
 17 21  1  0
 21 25  2  0
 25 26  1  0
 25 31  1  0
 26 27  2  0
 26 29  1  0
 27 28  1  0
 29 30  2  0
 30 31  1  0
M  END
$$$$
