
     RDKit          3D

 31 33  0  0  0  0  0  0  0  0999 V2000
   24.8476   39.2575   98.9558 P   0  0  0  0  0  0  0  0  0  0  0  0
   23.0536   38.8515  101.2962 P   0  0  0  0  0  0  0  0  0  0  0  0
   20.3819   39.3960  100.2244 P   0  0  0  0  0  0  0  0  0  0  0  0
   27.5281   39.4285   99.1633 C   0  0  0  0  0  0  0  0  0  0  0  0
   26.2916   38.6556   98.9374 O   0  0  0  0  0  0  0  0  0  0  0  0
   28.5864   38.5290   99.6440 C   0  0  1  0  0  0  0  0  0  0  0  0
   28.4021   38.1285  101.0180 O   0  0  0  0  0  0  0  0  0  0  0  0
   28.8790   37.2101   98.8926 C   0  0  1  0  0  0  0  0  0  0  0  0
   30.2878   37.0103   98.7654 O   0  0  0  0  0  0  0  0  0  0  0  0
   28.2037   36.2435   99.8579 C   0  0  1  0  0  0  0  0  0  0  0  0
   28.4299   34.8606   99.7129 O   0  0  0  0  0  0  0  0  0  0  0  0
   28.6394   36.7809  101.2305 C   0  0  2  0  0  0  0  0  0  0  0  0
   28.0881   34.5673  105.9971 N   0  0  0  0  0  0  0  0  0  0  0  0
   23.9505   38.2759   98.3144 O   0  0  0  0  0  0  0  0  0  0  0  0
   22.9227   37.3774  101.2377 O   0  0  0  0  0  0  0  0  0  0  0  0
   20.3821   38.3428   99.1757 O   0  0  0  0  0  0  0  0  0  0  0  0
   29.2766   34.7330  105.2520 C   0  0  0  0  0  0  0  0  0  0  0  0
   24.8856   40.6090   98.4057 O   0  0  0  0  0  0  0  0  0  0  0  0
   23.1668   39.2346  102.7122 O   0  0  0  0  0  0  0  0  0  0  0  0
   19.7679   40.6072   99.6526 O   0  0  0  0  0  0  0  0  0  0  0  0
   29.2260   35.3323  104.0016 N   0  0  0  0  0  0  0  0  0  0  0  0
   24.3952   39.3012  100.5157 O   0  0  0  0  0  0  0  0  0  0  0  0
   21.8949   39.7033  100.6512 O   0  0  0  0  0  0  0  0  0  0  0  0
   19.6586   38.9332  101.4434 O   0  0  0  0  0  0  0  0  0  0  0  0
   28.0063   35.7629  103.5249 C   0  0  0  0  0  0  0  0  0  0  0  0
   26.7932   35.6117  104.2472 C   0  0  0  0  0  0  0  0  0  0  0  0
   26.8291   34.9800  105.5560 C   0  0  0  0  0  0  0  0  0  0  0  0
   25.7673   34.7873  106.3312 N   0  0  0  0  0  0  0  0  0  0  0  0
   25.7351   36.1181  103.5326 N   0  0  0  0  0  0  0  0  0  0  0  0
   26.3118   36.5834  102.3861 C   0  0  0  0  0  0  0  0  0  0  0  0
   27.6866   36.3786  102.3556 N   0  0  0  0  0  0  0  0  0  0  0  0
  1  5  1  0
  1 14  1  0
  1 18  2  0
  1 22  1  0
  2 15  1  0
  2 19  2  0
  2 22  1  0
  2 23  1  0
  3 16  1  0
  3 20  1  0
  3 23  1  0
  3 24  2  0
  6  4  1  6
  4  5  1  0
  6  7  1  0
  6  8  1  0
  7 12  1  0
  8  9  1  1
  8 10  1  0
 10 11  1  6
 10 12  1  0
 12 31  1  1
 13 17  2  0
 13 27  1  0
 17 21  1  0
 21 25  2  0
 25 26  1  0
 25 31  1  0
 26 27  2  0
 26 29  1  0
 27 28  1  0
 29 30  2  0
 30 31  1  0
M  END
$$$$
