
     RDKit          3D

 31 33  0  0  0  0  0  0  0  0999 V2000
   24.8755   39.3992   99.0480 P   0  0  0  0  0  0  0  0  0  0  0  0
   23.0658   38.9296  101.3453 P   0  0  0  0  0  0  0  0  0  0  0  0
   20.3992   39.4744  100.2618 P   0  0  0  0  0  0  0  0  0  0  0  0
   27.5326   39.4082   99.1248 C   0  0  0  0  0  0  0  0  0  0  0  0
   26.2567   38.6758   99.0566 O   0  0  0  0  0  0  0  0  0  0  0  0
   28.5961   38.5265   99.6231 C   0  0  1  0  0  0  0  0  0  0  0  0
   28.3859   38.1378  100.9918 O   0  0  0  0  0  0  0  0  0  0  0  0
   28.9065   37.2050   98.8803 C   0  0  1  0  0  0  0  0  0  0  0  0
   30.3132   36.9786   98.8290 O   0  0  0  0  0  0  0  0  0  0  0  0
   28.1935   36.2491   99.8205 C   0  0  1  0  0  0  0  0  0  0  0  0
   28.4536   34.8735   99.7029 O   0  0  0  0  0  0  0  0  0  0  0  0
   28.6100   36.7926  101.1930 C   0  0  2  0  0  0  0  0  0  0  0  0
   28.0374   34.5122  105.8838 N   0  0  0  0  0  0  0  0  0  0  0  0
   23.9204   38.5457   98.3291 O   0  0  0  0  0  0  0  0  0  0  0  0
   22.9378   37.4555  101.2375 O   0  0  0  0  0  0  0  0  0  0  0  0
   20.4362   38.4117   99.2281 O   0  0  0  0  0  0  0  0  0  0  0  0
   29.2337   34.7150  105.1648 C   0  0  0  0  0  0  0  0  0  0  0  0
   25.0525   40.7842   98.5646 O   0  0  0  0  0  0  0  0  0  0  0  0
   23.1927   39.2700  102.7605 O   0  0  0  0  0  0  0  0  0  0  0  0
   19.7869   40.6849   99.6849 O   0  0  0  0  0  0  0  0  0  0  0  0
   29.1871   35.3442  103.9279 N   0  0  0  0  0  0  0  0  0  0  0  0
   24.4094   39.4170  100.5941 O   0  0  0  0  0  0  0  0  0  0  0  0
   21.9049   39.7961  100.7014 O   0  0  0  0  0  0  0  0  0  0  0  0
   19.6772   39.0006  101.4589 O   0  0  0  0  0  0  0  0  0  0  0  0
   27.9694   35.7572  103.4472 C   0  0  0  0  0  0  0  0  0  0  0  0
   26.7517   35.5728  104.1469 C   0  0  0  0  0  0  0  0  0  0  0  0
   26.7815   34.9131  105.4345 C   0  0  0  0  0  0  0  0  0  0  0  0
   25.7136   34.6871  106.1848 N   0  0  0  0  0  0  0  0  0  0  0  0
   25.6940   36.0817  103.4348 N   0  0  0  0  0  0  0  0  0  0  0  0
   26.2775   36.5715  102.3070 C   0  0  0  0  0  0  0  0  0  0  0  0
   27.6528   36.3808  102.2914 N   0  0  0  0  0  0  0  0  0  0  0  0
  1  5  1  0
  1 14  1  0
  1 18  2  0
  1 22  1  0
  2 15  1  0
  2 19  2  0
  2 22  1  0
  2 23  1  0
  3 16  1  0
  3 20  1  0
  3 23  1  0
  3 24  2  0
  6  4  1  6
  4  5  1  0
  6  7  1  0
  6  8  1  0
  7 12  1  0
  8  9  1  1
  8 10  1  0
 10 11  1  6
 10 12  1  0
 12 31  1  1
 13 17  2  0
 13 27  1  0
 17 21  1  0
 21 25  2  0
 25 26  1  0
 25 31  1  0
 26 27  2  0
 26 29  1  0
 27 28  1  0
 29 30  2  0
 30 31  1  0
M  END
$$$$
