
     RDKit          3D

 31 33  0  0  0  0  0  0  0  0999 V2000
   25.1268   39.9543   98.3368 P   0  0  0  0  0  0  0  0  0  0  0  0
   23.1576   37.7340   98.5283 P   0  0  0  0  0  0  0  0  0  0  0  0
   21.4545   39.7737   99.6714 P   0  0  0  0  0  0  0  0  0  0  0  0
   27.4002   38.8163   99.1039 C   0  0  0  0  0  0  0  0  0  0  0  0
   26.3962   39.5654   98.9632 O   0  0  0  0  0  0  0  0  0  0  0  0
   28.6823   38.4208   99.7059 C   0  0  1  0  0  0  0  0  0  0  0  0
   28.3515   38.1729  101.1142 O   0  0  0  0  0  0  0  0  0  0  0  0
   28.8177   37.1750   98.9070 C   0  0  1  0  0  0  0  0  0  0  0  0
   30.1159   36.9533   98.3672 O   0  0  0  0  0  0  0  0  0  0  0  0
   28.2505   36.0747   99.8707 C   0  0  1  0  0  0  0  0  0  0  0  0
   29.1039   34.9312   99.8913 O   0  0  0  0  0  0  0  0  0  0  0  0
   28.1299   36.7375  101.2985 C   0  0  2  0  0  0  0  0  0  0  0  0
   25.9059   34.1455  105.1098 N   0  0  0  0  0  0  0  0  0  0  0  0
   25.2092   41.0303   99.3213 O   0  0  0  0  0  0  0  0  0  0  0  0
   23.6851   37.2774   97.2573 O   0  0  0  0  0  0  0  0  0  0  0  0
   20.8715   41.0302   99.1350 O   0  0  0  0  0  0  0  0  0  0  0  0
   27.1699   34.0787  104.6027 C   0  0  0  0  0  0  0  0  0  0  0  0
   25.5013   40.1650   96.9314 O   0  0  0  0  0  0  0  0  0  0  0  0
   23.2117   36.9111   99.7371 O   0  0  0  0  0  0  0  0  0  0  0  0
   22.3903   39.9202  100.8180 O   0  0  0  0  0  0  0  0  0  0  0  0
   27.6574   34.8125  103.5828 N   0  0  0  0  0  0  0  0  0  0  0  0
   24.5873   38.5547   98.7424 O   0  0  0  0  0  0  0  0  0  0  0  0
   22.3300   39.0743   98.5525 O   0  0  0  0  0  0  0  0  0  0  0  0
   20.3670   38.8267   99.9656 O   0  0  0  0  0  0  0  0  0  0  0  0
   26.6814   35.7233  103.0633 C   0  0  0  0  0  0  0  0  0  0  0  0
   25.3805   35.8787  103.4921 C   0  0  0  0  0  0  0  0  0  0  0  0
   24.9872   35.0530  104.5617 C   0  0  0  0  0  0  0  0  0  0  0  0
   23.7541   35.1228  105.0355 N   0  0  0  0  0  0  0  0  0  0  0  0
   24.7163   36.8506  102.7667 N   0  0  0  0  0  0  0  0  0  0  0  0
   25.6137   37.2441  101.9219 C   0  0  0  0  0  0  0  0  0  0  0  0
   26.8438   36.5900  102.0450 N   0  0  0  0  0  0  0  0  0  0  0  0
  1  5  1  0
  1 14  1  0
  1 18  2  0
  1 22  1  0
  2 15  1  0
  2 19  2  0
  2 22  1  0
  2 23  1  0
  3 16  1  0
  3 20  1  0
  3 23  1  0
  3 24  2  0
  6  4  1  6
  4  5  1  0
  6  7  1  0
  6  8  1  0
  7 12  1  0
  8  9  1  1
  8 10  1  0
 10 11  1  1
 10 12  1  0
 12 31  1  6
 13 17  2  0
 13 27  1  0
 17 21  1  0
 21 25  2  0
 25 26  1  0
 25 31  1  0
 26 27  2  0
 26 29  1  0
 27 28  1  0
 29 30  2  0
 30 31  1  0
M  END
$$$$
