
     RDKit          3D

 35 38  0  0  0  0  0  0  0  0999 V2000
   27.1790   36.7590   92.6783 N   0  0  0  0  0  0  0  0  0  0  0  0
   27.7285   37.4477   93.8557 C   0  0  2  0  0  0  0  0  0  0  0  0
   26.6788   37.4619   94.9640 C   0  0  0  0  0  0  0  0  0  0  0  0
   25.6334   36.8196   94.8519 O   0  0  0  0  0  0  0  0  0  0  0  0
   26.9864   38.2264   96.0102 N   0  0  0  0  0  0  0  0  0  0  0  0
   25.7881   37.0423   97.9494 O   0  0  0  0  0  0  0  0  0  0  0  0
   24.6752   38.9214   96.8340 O   0  0  0  0  0  0  0  0  0  0  0  0
   28.0880   38.8924   93.4953 C   0  0  0  0  0  0  0  0  0  0  0  0
   25.9955   38.3768   97.2934 S   0  0  2  0  0  0  0  0  0  0  0  0
   29.2171   38.9771   92.4664 C   0  0  0  0  0  0  0  0  0  0  0  0
   28.9623   39.4761   91.1937 C   0  0  0  0  0  0  0  0  0  0  0  0
   30.5045   38.5726   92.8103 C   0  0  0  0  0  0  0  0  0  0  0  0
   29.9946   39.5738   90.2646 C   0  0  0  0  0  0  0  0  0  0  0  0
   31.5368   38.6717   91.8817 C   0  0  0  0  0  0  0  0  0  0  0  0
   31.2828   39.1734   90.6100 C   0  0  0  0  0  0  0  0  0  0  0  0
   32.2936   39.2681   89.7042 O   0  0  0  0  0  0  0  0  0  0  0  0
   26.9986   38.9351   99.5881 C   0  0  0  0  0  0  0  0  0  0  0  0
   26.6164   39.3339   98.2690 O   0  0  0  0  0  0  0  0  0  0  0  0
   28.4562   38.4725   99.6745 C   0  0  1  0  0  0  0  0  0  0  0  0
   28.7708   38.1905  101.0505 O   0  0  0  0  0  0  0  0  0  0  0  0
   28.7054   37.1557   98.9352 C   0  0  1  0  0  0  0  0  0  0  0  0
   30.1092   36.9398   98.7709 O   0  0  0  0  0  0  0  0  0  0  0  0
   28.1469   36.1735   99.9631 C   0  0  1  0  0  0  0  0  0  0  0  0
   28.7106   34.8815   99.7239 O   0  0  0  0  0  0  0  0  0  0  0  0
   28.7338   36.7646  101.2469 C   0  0  2  0  0  0  0  0  0  0  0  0
   28.7415   34.7416  105.9939 N   0  0  0  0  0  0  0  0  0  0  0  0
   29.7579   34.8940  105.1615 C   0  0  0  0  0  0  0  0  0  0  0  0
   29.5845   35.4272  103.9634 N   0  0  0  0  0  0  0  0  0  0  0  0
   28.3729   35.8328  103.5533 C   0  0  0  0  0  0  0  0  0  0  0  0
   27.2841   35.6873  104.4040 C   0  0  0  0  0  0  0  0  0  0  0  0
   27.5003   35.1194  105.6558 C   0  0  0  0  0  0  0  0  0  0  0  0
   26.4919   34.9563  106.5074 N   0  0  0  0  0  0  0  0  0  0  0  0
   26.2199   36.1730  103.7760 N   0  0  0  0  0  0  0  0  0  0  0  0
   26.6193   36.6112  102.5854 C   0  0  0  0  0  0  0  0  0  0  0  0
   27.9272   36.4038  102.4371 N   0  0  0  0  0  0  0  0  0  0  0  0
  2  1  1  6
  2  3  1  0
  2  8  1  0
  3  4  1  0
  3  5  2  3
  5  9  1  0
  6  9  2  0
  7  9  2  0
  8 10  1  0
  9 18  1  1
 10 11  2  0
 10 12  1  0
 11 13  1  0
 12 14  2  0
 13 15  2  0
 14 15  1  0
 15 16  1  0
 19 17  1  1
 17 18  1  0
 19 20  1  0
 19 21  1  0
 20 25  1  0
 21 22  1  1
 21 23  1  0
 23 24  1  6
 23 25  1  0
 25 35  1  1
 26 31  2  0
 26 27  1  0
 27 28  2  0
 28 29  1  0
 29 30  2  0
 29 35  1  0
 30 31  1  0
 30 33  1  0
 31 32  1  0
 33 34  2  0
 34 35  1  0
M  END
$$$$
