
     RDKit          3D

 35 38  0  0  0  0  0  0  0  0999 V2000
   27.4097   36.8682   92.7878 N   0  0  0  0  0  0  0  0  0  0  0  0
   27.9025   37.4988   94.0202 C   0  0  2  0  0  0  0  0  0  0  0  0
   26.7470   37.6170   95.0148 C   0  0  0  0  0  0  0  0  0  0  0  0
   25.6608   37.0924   94.7787 O   0  0  0  0  0  0  0  0  0  0  0  0
   27.0228   38.3291   96.1056 N   0  0  0  0  0  0  0  0  0  0  0  0
   25.4953   37.2699   97.8718 O   0  0  0  0  0  0  0  0  0  0  0  0
   24.7525   39.3335   96.7686 O   0  0  0  0  0  0  0  0  0  0  0  0
   28.4426   38.8996   93.7180 C   0  0  0  0  0  0  0  0  0  0  0  0
   25.9383   38.5830   97.2972 S   0  0  2  0  0  0  0  0  0  0  0  0
   29.6273   38.8992   92.7489 C   0  0  0  0  0  0  0  0  0  0  0  0
   29.4702   39.4164   91.4663 C   0  0  0  0  0  0  0  0  0  0  0  0
   30.8762   38.4420   93.1624 C   0  0  0  0  0  0  0  0  0  0  0  0
   30.5586   39.4812   90.6015 C   0  0  0  0  0  0  0  0  0  0  0  0
   31.9648   38.5046   92.2975 C   0  0  0  0  0  0  0  0  0  0  0  0
   31.8070   39.0289   91.0160 C   0  0  0  0  0  0  0  0  0  0  0  0
   32.8788   39.1239   90.1845 O   0  0  0  0  0  0  0  0  0  0  0  0
   26.9790   38.8675   99.6116 C   0  0  0  0  0  0  0  0  0  0  0  0
   26.5897   39.4223   98.3547 O   0  0  0  0  0  0  0  0  0  0  0  0
   28.4541   38.4576   99.6384 C   0  0  1  0  0  0  0  0  0  0  0  0
   28.8255   38.1800  100.9987 O   0  0  0  0  0  0  0  0  0  0  0  0
   28.7403   37.1481   98.9025 C   0  0  1  0  0  0  0  0  0  0  0  0
   30.1538   36.9578   98.7837 O   0  0  0  0  0  0  0  0  0  0  0  0
   28.1498   36.1627   99.9124 C   0  0  1  0  0  0  0  0  0  0  0  0
   28.7531   34.8735   99.7816 O   0  0  0  0  0  0  0  0  0  0  0  0
   28.6026   36.7775  101.2385 C   0  0  2  0  0  0  0  0  0  0  0  0
   27.7795   35.2154  106.0717 N   0  0  0  0  0  0  0  0  0  0  0  0
   28.9254   35.3026  105.4171 C   0  0  0  0  0  0  0  0  0  0  0  0
   28.9633   35.7333  104.1670 N   0  0  0  0  0  0  0  0  0  0  0  0
   27.8423   36.0900  103.5222 C   0  0  0  0  0  0  0  0  0  0  0  0
   26.6223   36.0090  104.1795 C   0  0  0  0  0  0  0  0  0  0  0  0
   26.6190   35.5579  105.4932 C   0  0  0  0  0  0  0  0  0  0  0  0
   25.4797   35.4877  106.1751 N   0  0  0  0  0  0  0  0  0  0  0  0
   25.6829   36.4188  103.3320 N   0  0  0  0  0  0  0  0  0  0  0  0
   26.2800   36.7426  102.1887 C   0  0  0  0  0  0  0  0  0  0  0  0
   27.5920   36.5441  102.2968 N   0  0  0  0  0  0  0  0  0  0  0  0
  2  1  1  6
  2  3  1  0
  2  8  1  0
  3  4  1  0
  3  5  2  3
  5  9  1  0
  6  9  2  0
  7  9  2  0
  8 10  1  0
  9 18  1  1
 10 11  2  0
 10 12  1  0
 11 13  1  0
 12 14  2  0
 13 15  2  0
 14 15  1  0
 15 16  1  0
 19 17  1  1
 17 18  1  0
 19 20  1  0
 19 21  1  0
 20 25  1  0
 21 22  1  1
 21 23  1  0
 23 24  1  6
 23 25  1  0
 25 35  1  1
 26 31  2  0
 26 27  1  0
 27 28  2  0
 28 29  1  0
 29 30  2  0
 29 35  1  0
 30 31  1  0
 30 33  1  0
 31 32  1  0
 33 34  2  0
 34 35  1  0
M  END
$$$$
