
     RDKit          3D

 35 38  0  0  0  0  0  0  0  0999 V2000
   27.1866   37.9223   92.9225 N   0  0  0  0  0  0  0  0  0  0  0  0
   27.4785   38.7574   94.1273 C   0  0  2  0  0  0  0  0  0  0  0  0
   26.4437   38.5225   95.2019 C   0  0  0  0  0  0  0  0  0  0  0  0
   25.5925   37.6617   95.0573 O   0  0  0  0  0  0  0  0  0  0  0  0
   27.5264   40.2369   93.7375 C   0  0  0  0  0  0  0  0  0  0  0  0
   28.6820   40.5504   92.8150 C   0  0  0  0  0  0  0  0  0  0  0  0
   29.9856   40.1903   93.1634 C   0  0  0  0  0  0  0  0  0  0  0  0
   28.4468   41.2067   91.6031 C   0  0  0  0  0  0  0  0  0  0  0  0
   31.0441   40.4915   92.3129 C   0  0  0  0  0  0  0  0  0  0  0  0
   29.5063   41.5117   90.7484 C   0  0  0  0  0  0  0  0  0  0  0  0
   30.8074   41.1490   91.1049 C   0  0  0  0  0  0  0  0  0  0  0  0
   31.8288   41.4219   90.2992 O   0  0  0  0  0  0  0  0  0  0  0  0
   25.5307   39.3225   97.6217 P   0  0  0  0  0  0  0  0  0  0  0  0
   24.4078   38.3348   97.5487 O   0  0  0  0  0  0  0  0  0  0  0  0
   25.1639   40.7579   97.8766 O   0  0  0  0  0  0  0  0  0  0  0  0
   26.5408   39.3018   96.2830 N   0  0  0  0  0  0  0  0  0  0  0  0
   27.6573   39.4840   99.1869 C   0  0  0  0  0  0  0  0  0  0  0  0
   26.4381   38.8249   98.8546 O   0  0  0  0  0  0  0  0  0  0  0  0
   28.6665   38.4696   99.7122 C   0  0  1  0  0  0  0  0  0  0  0  0
   28.4118   38.1712  101.0933 O   0  0  0  0  0  0  0  0  0  0  0  0
   28.6292   37.1807   98.9085 C   0  0  1  0  0  0  0  0  0  0  0  0
   29.9720   36.9636   98.5043 O   0  0  0  0  0  0  0  0  0  0  0  0
   28.2445   36.0956   99.8872 C   0  0  1  0  0  0  0  0  0  0  0  0
   28.9923   34.8946   99.8154 O   0  0  0  0  0  0  0  0  0  0  0  0
   28.2364   36.7627  101.2596 C   0  0  2  0  0  0  0  0  0  0  0  0
   27.0249   33.8245  105.2239 N   0  0  0  0  0  0  0  0  0  0  0  0
   28.3704   34.1098  104.7314 C   0  0  0  0  0  0  0  0  0  0  0  0
   28.3408   35.0007  103.5855 N   0  0  0  0  0  0  0  0  0  0  0  0
   27.1735   35.4795  103.0752 C   0  0  0  0  0  0  0  0  0  0  0  0
   25.9464   35.1765  103.5777 C   0  0  0  0  0  0  0  0  0  0  0  0
   25.8704   34.2812  104.7457 C   0  0  0  0  0  0  0  0  0  0  0  0
   24.7079   33.9536  105.2917 N   0  0  0  0  0  0  0  0  0  0  0  0
   25.0571   35.8376  102.8109 N   0  0  0  0  0  0  0  0  0  0  0  0
   25.7602   36.5140  101.8605 C   0  0  0  0  0  0  0  0  0  0  0  0
   27.0772   36.2931  102.0395 N   0  0  0  0  0  0  0  0  0  0  0  0
  2  1  1  6
  2  3  1  0
  2  5  1  0
  3  4  1  0
  3 16  2  3
  5  6  1  0
  6  7  2  0
  6  8  1  0
  7  9  1  0
  8 10  2  0
  9 11  2  0
 10 11  1  0
 11 12  1  0
 13 14  1  0
 13 15  2  0
 13 18  1  0
 13 16  1  0
 19 17  1  6
 17 18  1  0
 19 20  1  0
 19 21  1  0
 20 25  1  0
 21 22  1  1
 21 23  1  0
 23 24  1  1
 23 25  1  0
 25 35  1  6
 26 27  2  0
 26 31  1  0
 27 28  1  0
 28 29  2  0
 29 30  1  0
 29 35  1  0
 30 31  2  0
 30 33  1  0
 31 32  1  0
 33 34  2  0
 34 35  1  0
M  END
$$$$
