
     RDKit          3D

 34 37  0  0  0  0  0  0  0  0999 V2000
   26.2769   38.0362   94.6128 C   0  0  2  0  0  0  0  0  0  0  0  0
   26.1689   37.6866   96.0720 C   0  0  0  0  0  0  0  0  0  0  0  0
   26.4911   39.5253   94.3599 C   0  0  0  0  0  0  0  0  0  0  0  0
   27.1428   39.7582   93.1345 C   0  0  0  0  0  0  0  0  0  0  0  0
   28.3991   39.2109   92.9241 C   0  0  0  0  0  0  0  0  0  0  0  0
   26.5568   40.5396   92.1155 C   0  0  0  0  0  0  0  0  0  0  0  0
   29.0831   39.4435   91.7281 C   0  0  0  0  0  0  0  0  0  0  0  0
   27.2256   40.7331   90.9006 C   0  0  0  0  0  0  0  0  0  0  0  0
   28.4935   40.1961   90.7139 C   0  0  0  0  0  0  0  0  0  0  0  0
   25.0359   37.5997   93.9289 N   0  0  0  0  0  0  0  0  0  0  0  0
   29.2067   40.3590   89.5761 O   0  0  0  0  0  0  0  0  0  0  0  0
   25.1261   38.7573   98.1027 P   0  0  0  0  0  0  0  0  0  0  0  0
   24.4678   40.0421   98.4216 O   0  0  0  0  0  0  0  0  0  0  0  0
   24.4663   38.0463   99.2013 O   0  0  0  0  0  0  0  0  0  0  0  0
   27.1856   39.2203   99.6212 C   0  0  0  0  0  0  0  0  0  0  0  0
   26.6714   38.8611   98.3494 O   0  0  0  0  0  0  0  0  0  0  0  0
   28.5860   38.5510   99.6951 C   0  0  1  0  0  0  0  0  0  0  0  0
   28.6930   38.2158  101.1110 O   0  0  0  0  0  0  0  0  0  0  0  0
   28.6936   37.2192   98.9438 C   0  0  1  0  0  0  0  0  0  0  0  0
   30.0014   36.8345   98.6087 O   0  0  0  0  0  0  0  0  0  0  0  0
   28.1292   36.1903   99.9367 C   0  0  1  0  0  0  0  0  0  0  0  0
   28.7769   34.9120   99.7342 O   0  0  0  0  0  0  0  0  0  0  0  0
   28.5109   36.8428  101.2220 C   0  0  2  0  0  0  0  0  0  0  0  0
   29.6578   34.1753  105.3495 N   0  0  0  0  0  0  0  0  0  0  0  0
   30.3534   34.4822  104.2159 C   0  0  0  0  0  0  0  0  0  0  0  0
   29.9655   35.1847  103.2110 N   0  0  0  0  0  0  0  0  0  0  0  0
   28.6990   35.6511  103.3837 C   0  0  0  0  0  0  0  0  0  0  0  0
   27.8802   35.4363  104.4522 C   0  0  0  0  0  0  0  0  0  0  0  0
   28.4013   34.6719  105.5270 C   0  0  0  0  0  0  0  0  0  0  0  0
   27.7517   34.3796  106.6556 N   0  0  0  0  0  0  0  0  0  0  0  0
   26.6772   36.1108  104.2997 N   0  0  0  0  0  0  0  0  0  0  0  0
   26.7884   36.6711  103.0911 C   0  0  0  0  0  0  0  0  0  0  0  0
   27.9717   36.4304  102.4870 N   0  0  0  0  0  0  0  0  0  0  0  0
   24.9468   38.1462   96.6871 O   0  0  0  0  0  0  0  0  0  0  0  0
  1  2  1  0
  1  3  1  0
  1 10  1  6
  2 34  1  0
  3  4  1  0
  4  5  2  0
  4  6  1  0
  5  7  1  0
  6  8  2  0
  7  9  2  0
  8  9  1  0
  9 11  1  0
 12 13  1  0
 12 14  2  0
 12 16  1  0
 12 34  1  0
 17 15  1  1
 15 16  1  0
 17 18  1  0
 17 19  1  0
 18 23  1  0
 19 20  1  1
 19 21  1  0
 21 22  1  6
 21 23  1  0
 23 33  1  1
 24 25  2  0
 24 29  1  0
 25 26  1  0
 26 27  2  0
 27 28  1  0
 27 33  1  0
 28 29  2  0
 28 31  1  0
 29 30  1  0
 31 32  2  0
 32 33  1  0
M  CHG  1  11  -1
M  END
$$$$
