
     RDKit          3D

 34 37  0  0  0  0  0  0  0  0999 V2000
   26.6009   37.6171   94.9601 C   0  0  2  0  0  0  0  0  0  0  0  0
   25.3509   37.3508   95.7929 C   0  0  0  0  0  0  0  0  0  0  0  0
   26.7281   39.0685   94.5212 C   0  0  0  0  0  0  0  0  0  0  0  0
   27.5291   39.2572   93.1951 C   0  0  0  0  0  0  0  0  0  0  0  0
   27.0144   40.0404   92.1822 C   0  0  0  0  0  0  0  0  0  0  0  0
   28.7665   38.6228   93.0194 C   0  0  0  0  0  0  0  0  0  0  0  0
   27.7367   40.1923   91.0080 C   0  0  0  0  0  0  0  0  0  0  0  0
   29.4844   38.7819   91.8530 C   0  0  0  0  0  0  0  0  0  0  0  0
   28.9605   39.5688   90.8370 C   0  0  0  0  0  0  0  0  0  0  0  0
   26.5480   36.7426   93.7841 N   0  0  0  0  0  0  0  0  0  0  0  0
   29.6423   39.7391   89.6712 O   0  0  0  0  0  0  0  0  0  0  0  0
   25.1783   38.3796   98.0364 P   0  0  0  0  0  0  0  0  0  0  0  0
   24.5804   37.8341   99.4297 O   0  0  0  0  0  0  0  0  0  0  0  0
   24.2169   39.3912   97.3979 O   0  0  0  0  0  0  0  0  0  0  0  0
   27.1450   39.1258   99.5850 C   0  0  0  0  0  0  0  0  0  0  0  0
   26.6179   39.0084   98.2755 O   0  0  0  0  0  0  0  0  0  0  0  0
   28.5112   38.5076   99.6907 C   0  0  1  0  0  0  0  0  0  0  0  0
   28.7656   38.1821  101.0760 O   0  0  0  0  0  0  0  0  0  0  0  0
   28.6824   37.2064   98.9341 C   0  0  1  0  0  0  0  0  0  0  0  0
   30.0725   36.9867   98.6940 O   0  0  0  0  0  0  0  0  0  0  0  0
   28.1652   36.1864   99.9462 C   0  0  1  0  0  0  0  0  0  0  0  0
   28.6283   34.8667   99.7511 O   0  0  0  0  0  0  0  0  0  0  0  0
   28.6597   36.7770  101.2694 C   0  0  2  0  0  0  0  0  0  0  0  0
   28.5619   35.1438  106.0991 N   0  0  0  0  0  0  0  0  0  0  0  0
   29.5935   35.2324  105.2429 C   0  0  0  0  0  0  0  0  0  0  0  0
   29.4478   35.6923  103.9809 N   0  0  0  0  0  0  0  0  0  0  0  0
   28.2190   36.0768  103.5792 C   0  0  0  0  0  0  0  0  0  0  0  0
   27.1160   36.0091  104.4383 C   0  0  0  0  0  0  0  0  0  0  0  0
   27.3236   35.5250  105.7402 C   0  0  0  0  0  0  0  0  0  0  0  0
   26.2460   35.4359  106.6505 N   0  0  0  0  0  0  0  0  0  0  0  0
   26.0286   36.4539  103.7404 N   0  0  0  0  0  0  0  0  0  0  0  0
   26.4419   36.7936  102.5040 C   0  0  0  0  0  0  0  0  0  0  0  0
   27.7639   36.5445  102.4032 N   0  0  0  0  0  0  0  0  0  0  0  0
   25.4787   37.1588   97.0747 O   0  0  0  0  0  0  0  0  0  0  0  0
  1  2  1  0
  1  3  1  0
  1 10  1  6
  2 34  1  0
  3  4  1  0
  4  5  2  0
  4  6  1  0
  5  7  1  0
  6  8  2  0
  7  9  2  0
  8  9  1  0
  9 11  1  0
 12 13  1  0
 12 14  2  0
 12 16  1  0
 12 34  1  0
 17 15  1  1
 15 16  1  0
 17 18  1  0
 17 19  1  0
 18 23  1  0
 19 20  1  1
 19 21  1  0
 21 22  1  6
 21 23  1  0
 23 33  1  1
 24 25  2  0
 24 29  1  0
 25 26  1  0
 26 27  2  0
 27 28  1  0
 27 33  1  0
 28 29  2  0
 28 31  1  0
 29 30  1  0
 31 32  2  0
 32 33  1  0
M  CHG  1  11  -1
M  END
$$$$
