
     RDKit          3D

 35 38  0  0  0  0  0  0  0  0999 V2000
   26.7647   37.3942   93.1841 N   0  0  0  0  0  0  0  0  0  0  0  0
   27.1755   38.0937   94.4067 C   0  0  2  0  0  0  0  0  0  0  0  0
   25.9823   38.1187   95.3429 C   0  0  0  0  0  0  0  0  0  0  0  0
   24.8139   38.0568   94.9610 O   0  0  0  0  0  0  0  0  0  0  0  0
   26.2861   38.2288   96.6818 N   0  0  0  0  0  0  0  0  0  0  0  0
   24.2912   37.9558   98.0352 O   0  0  0  0  0  0  0  0  0  0  0  0
   25.1495   40.2416   97.6658 O   0  0  0  0  0  0  0  0  0  0  0  0
   27.5121   39.5587   94.1293 C   0  0  0  0  0  0  0  0  0  0  0  0
   25.3710   38.8521   97.8332 S   0  0  2  0  0  0  0  0  0  0  0  0
   28.5521   39.7589   93.0561 C   0  0  0  0  0  0  0  0  0  0  0  0
   29.8263   39.2102   93.1787 C   0  0  0  0  0  0  0  0  0  0  0  0
   28.2578   40.5027   91.9202 C   0  0  0  0  0  0  0  0  0  0  0  0
   30.7884   39.4167   92.2025 C   0  0  0  0  0  0  0  0  0  0  0  0
   29.1977   40.6795   90.9217 C   0  0  0  0  0  0  0  0  0  0  0  0
   30.4672   40.1368   91.0608 C   0  0  0  0  0  0  0  0  0  0  0  0
   31.3713   40.2817   90.0566 O   0  0  0  0  0  0  0  0  0  0  0  0
   27.5801   39.4431   99.0903 C   0  0  0  0  0  0  0  0  0  0  0  0
   26.3188   38.6932   99.1024 O   0  0  0  0  0  0  0  0  0  0  0  0
   28.6448   38.5295   99.6496 C   0  0  1  0  0  0  0  0  0  0  0  0
   28.3281   38.1795  101.0175 O   0  0  0  0  0  0  0  0  0  0  0  0
   28.8383   37.2043   98.9031 C   0  0  1  0  0  0  0  0  0  0  0  0
   30.2295   36.9280   98.7566 O   0  0  0  0  0  0  0  0  0  0  0  0
   28.1473   36.1997   99.8177 C   0  0  1  0  0  0  0  0  0  0  0  0
   28.6489   34.8818   99.7143 O   0  0  0  0  0  0  0  0  0  0  0  0
   28.5121   36.7879  101.1703 C   0  0  2  0  0  0  0  0  0  0  0  0
   28.4833   34.1543  105.5839 N   0  0  0  0  0  0  0  0  0  0  0  0
   29.4801   34.5427  104.7787 C   0  0  0  0  0  0  0  0  0  0  0  0
   29.4140   35.2730  103.6594 N   0  0  0  0  0  0  0  0  0  0  0  0
   28.1492   35.6021  103.3699 C   0  0  0  0  0  0  0  0  0  0  0  0
   27.0173   35.2780  104.1066 C   0  0  0  0  0  0  0  0  0  0  0  0
   27.2156   34.5049  105.2682 C   0  0  0  0  0  0  0  0  0  0  0  0
   26.2147   34.0436  106.0320 N   0  0  0  0  0  0  0  0  0  0  0  0
   25.8786   35.7973  103.5103 N   0  0  0  0  0  0  0  0  0  0  0  0
   26.3362   36.4002  102.4378 C   0  0  0  0  0  0  0  0  0  0  0  0
   27.6977   36.3118  102.2839 N   0  0  0  0  0  0  0  0  0  0  0  0
  2  1  1  6
  2  3  1  0
  2  8  1  0
  3  4  1  0
  3  5  2  3
  5  9  1  0
  6  9  2  0
  7  9  2  0
  8 10  1  0
  9 18  1  1
 10 11  2  0
 10 12  1  0
 11 13  1  0
 12 14  2  0
 13 15  2  0
 14 15  1  0
 15 16  1  0
 19 17  1  6
 17 18  1  0
 19 20  1  0
 19 21  1  0
 20 25  1  0
 21 22  1  1
 21 23  1  0
 23 24  1  1
 23 25  1  0
 25 35  1  1
 26 31  2  0
 26 27  1  0
 27 28  2  0
 28 29  1  0
 29 30  2  0
 29 35  1  0
 30 31  1  0
 30 33  1  0
 31 32  1  0
 33 34  2  0
 34 35  1  0
M  END
$$$$
