
     RDKit          3D

 37 40  0  0  0  0  0  0  0  0999 V2000
   26.3417   37.9845   93.1124 N   0  0  0  0  0  0  0  0  0  0  0  0
   26.8882   38.5017   94.3808 C   0  0  2  0  0  0  0  0  0  0  0  0
   25.7820   38.5894   95.4125 C   0  0  0  0  0  0  0  0  0  0  0  0
   24.5756   38.5408   95.2066 O   0  0  0  0  0  0  0  0  0  0  0  0
   27.4040   39.9477   94.2918 C   0  0  0  0  0  0  0  0  0  0  0  0
   26.6579   31.9300  106.5601 O   0  0  0  0  0  0  0  0  0  0  0  0
   27.5596   39.4358   99.1096 C   0  0  0  0  0  0  0  0  0  0  0  0
   26.3233   38.6752   99.1524 O   0  0  0  0  0  0  0  0  0  0  0  0
   28.6563   38.5428   99.6329 C   0  0  1  0  0  0  0  0  0  0  0  0
   28.3698   38.1908  101.0069 O   0  0  0  0  0  0  0  0  0  0  0  0
   28.8531   37.2200   98.8839 C   0  0  1  0  0  0  0  0  0  0  0  0
   30.2320   36.8704   98.7741 O   0  0  0  0  0  0  0  0  0  0  0  0
   28.1264   36.2122   99.7736 C   0  0  1  0  0  0  0  0  0  0  0  0
   28.6995   34.9158   99.7356 O   0  0  0  0  0  0  0  0  0  0  0  0
   28.4280   36.7840  101.1529 C   0  0  2  0  0  0  0  0  0  0  0  0
   28.6286   34.0808  104.8659 C   0  0  0  0  0  0  0  0  0  0  0  0
   24.1825   38.0993   98.0830 O   0  0  0  0  0  0  0  0  0  0  0  0
   27.4181   34.0084  105.5487 C   0  0  0  0  0  0  0  0  0  0  0  0
   27.2975   33.1751  106.7997 C   0  0  0  0  0  0  0  0  0  0  0  0
   25.1053   40.3885   97.9261 O   0  0  0  0  0  0  0  0  0  0  0  0
   26.3203   34.7094  105.0670 C   0  0  0  0  0  0  0  0  0  0  0  0
   26.2189   38.7603   96.7088 N   0  0  0  0  0  0  0  0  0  0  0  0
   28.3504   40.2271   93.1597 C   0  0  0  0  0  0  0  0  0  0  0  0
   26.4450   35.4803  103.9157 C   0  0  0  0  0  0  0  0  0  0  0  0
   29.6282   39.6829   93.1443 C   0  0  0  0  0  0  0  0  0  0  0  0
   27.6732   35.5436  103.2435 C   0  0  0  0  0  0  0  0  0  0  0  0
   30.5310   39.9977   92.1455 C   0  0  0  0  0  0  0  0  0  0  0  0
   28.7932   34.8358  103.6945 C   0  0  0  0  0  0  0  0  0  0  0  0
   30.0195   34.8024  103.0382 N   0  0  0  0  0  0  0  0  0  0  0  0
   30.1592   40.8711   91.1358 C   0  0  0  0  0  0  0  0  0  0  0  0
   27.4613   36.3816  102.1678 N   0  0  0  0  0  0  0  0  0  0  0  0
   26.1495   36.7669  102.2411 C   0  0  0  0  0  0  0  0  0  0  0  0
   31.0434   41.2184   90.1525 O   0  0  0  0  0  0  0  0  0  0  0  0
   28.8811   41.4110   91.1233 C   0  0  0  0  0  0  0  0  0  0  0  0
   25.4998   36.2590  103.2598 N   0  0  0  0  0  0  0  0  0  0  0  0
   27.9929   41.0850   92.1305 C   0  0  0  0  0  0  0  0  0  0  0  0
   25.2893   38.9827   97.9796 S   0  0  1  0  0  0  0  0  0  0  0  0
  2  1  1  6
  2  3  1  0
  2  5  1  0
  3  4  1  0
  3 22  2  3
  5 23  1  0
  6 19  1  0
  7  8  1  0
  9  7  1  6
 37  8  1  1
  9 10  1  0
  9 11  1  0
 10 15  1  0
 11 12  1  1
 11 13  1  0
 13 14  1  1
 13 15  1  0
 15 31  1  1
 16 18  2  0
 16 28  1  0
 17 37  2  0
 18 19  1  0
 18 21  1  0
 20 37  2  0
 21 24  2  0
 22 37  1  0
 23 25  2  0
 23 36  1  0
 24 26  1  0
 24 35  1  0
 25 27  1  0
 26 28  2  0
 26 31  1  0
 27 30  2  0
 28 29  1  0
 30 33  1  0
 30 34  1  0
 31 32  1  0
 32 35  2  0
 34 36  2  0
M  END
$$$$
