
     RDKit          3D

 26 26  0  0  0  0  0  0  0  0999 V2000
    1.9085   -1.6623   -0.4249 N   0  0  0  0  0  0  0  0  0  0  0  0
    2.1645   -0.2687   -0.5205 C   0  0  1  0  0  0  0  0  0  0  0  0
    1.3066    0.5953    0.3393 C   0  0  0  0  0  0  0  0  0  0  0  0
   -0.1310    0.5187    0.0983 C   0  0  0  0  0  0  0  0  0  0  0  0
   -0.9728   -0.3674    0.7369 C   0  0  0  0  0  0  0  0  0  0  0  0
   -2.3208   -0.4415    0.5133 C   0  0  0  0  0  0  0  0  0  0  0  0
   -2.9059    0.3988   -0.3924 C   0  0  0  0  0  0  0  0  0  0  0  0
   -4.2817    0.3242   -0.6216 O   0  0  0  0  0  0  0  0  0  0  0  0
   -2.1085    1.3040   -1.0584 C   0  0  0  0  0  0  0  0  0  0  0  0
   -0.7343    1.3637   -0.8156 C   0  0  0  0  0  0  0  0  0  0  0  0
   -3.1493   -1.3744    1.1984 N   0  0  0  0  0  4  0  0  0  0  0  0
   -2.6761   -2.6073    1.5945 O   0  0  0  0  0  1  0  0  0  0  0  0
   -4.3174   -1.0713    1.4427 O   0  0  0  0  0  0  0  0  0  0  0  0
    3.5674   -0.0252   -0.1405 C   0  0  0  0  0  0  0  0  0  0  0  0
    4.0678    1.2552   -0.1498 O   0  0  0  0  0  0  0  0  0  0  0  0
    4.3020   -0.9723    0.1888 O   0  0  0  0  0  0  0  0  0  0  0  0
    2.5556   -2.2100   -0.9925 H   0  0  0  0  0  0  0  0  0  0  0  0
    1.7321   -2.0234    0.5274 H   0  0  0  0  0  0  0  0  0  0  0  0
    2.0707    0.0377   -1.5839 H   0  0  0  0  0  0  0  0  0  0  0  0
    1.6262    1.6492    0.1544 H   0  0  0  0  0  0  0  0  0  0  0  0
    1.5409    0.4065    1.4182 H   0  0  0  0  0  0  0  0  0  0  0  0
   -0.5345   -1.0372    1.4529 H   0  0  0  0  0  0  0  0  0  0  0  0
   -4.9758    0.6680    0.0130 H   0  0  0  0  0  0  0  0  0  0  0  0
   -2.5973    1.9588   -1.7712 H   0  0  0  0  0  0  0  0  0  0  0  0
   -0.1407    2.0816   -1.3522 H   0  0  0  0  0  0  0  0  0  0  0  0
    5.0037    1.4995    0.1455 H   0  0  0  0  0  0  0  0  0  0  0  0
  1  2  1  0
  2  3  1  0
  3  4  1  0
  4  5  2  0
  5  6  1  0
  6  7  2  0
  7  8  1  0
  7  9  1  0
  9 10  2  0
  6 11  1  0
 11 12  1  0
 11 13  2  0
  2 14  1  0
 14 15  1  0
 14 16  2  0
 10  4  1  0
  1 17  1  0
  1 18  1  0
  2 19  1  6
  3 20  1  0
  3 21  1  0
  5 22  1  0
  8 23  1  0
  9 24  1  0
 10 25  1  0
 15 26  1  0
M  CHG  2  11   1  12  -1
M  END
$$$$

     RDKit          3D

 26 26  0  0  0  0  0  0  0  0999 V2000
   -2.3823    0.6436   -0.7873 N   0  0  0  0  0  0  0  0  0  0  0  0
   -2.0625   -0.6572   -0.2872 C   0  0  1  0  0  0  0  0  0  0  0  0
   -1.0285   -0.6283    0.8139 C   0  0  0  0  0  0  0  0  0  0  0  0
    0.2562   -0.0442    0.4049 C   0  0  0  0  0  0  0  0  0  0  0  0
    1.2995   -0.7695   -0.1295 C   0  0  0  0  0  0  0  0  0  0  0  0
    2.4968   -0.1948   -0.5045 C   0  0  0  0  0  0  0  0  0  0  0  0
    2.6686    1.1587   -0.3431 C   0  0  0  0  0  0  0  0  0  0  0  0
    3.8657    1.7602   -0.7136 O   0  0  0  0  0  0  0  0  0  0  0  0
    1.6520    1.9183    0.1864 C   0  0  0  0  0  0  0  0  0  0  0  0
    0.4473    1.3131    0.5594 C   0  0  0  0  0  0  0  0  0  0  0  0
    3.5799   -0.9339   -1.0567 N   0  0  0  0  0  4  0  0  0  0  0  0
    3.3855   -2.0520   -1.8326 O   0  0  0  0  0  1  0  0  0  0  0  0
    4.7753   -0.6010   -0.8630 O   0  0  0  0  0  0  0  0  0  0  0  0
   -3.2797   -1.2710    0.2860 C   0  0  0  0  0  0  0  0  0  0  0  0
   -4.4612   -0.5518    0.2616 O   0  0  0  0  0  0  0  0  0  0  0  0
   -3.2610   -2.4345    0.7953 O   0  0  0  0  0  0  0  0  0  0  0  0
   -2.8582    1.2206   -0.0586 H   0  0  0  0  0  0  0  0  0  0  0  0
   -3.0219    0.5768   -1.5947 H   0  0  0  0  0  0  0  0  0  0  0  0
   -1.6711   -1.2489   -1.1506 H   0  0  0  0  0  0  0  0  0  0  0  0
   -1.4754   -0.0991    1.6980 H   0  0  0  0  0  0  0  0  0  0  0  0
   -0.8815   -1.6793    1.1384 H   0  0  0  0  0  0  0  0  0  0  0  0
    1.1882   -1.8364   -0.2661 H   0  0  0  0  0  0  0  0  0  0  0  0
    4.4837    2.2310   -0.0885 H   0  0  0  0  0  0  0  0  0  0  0  0
    1.8237    2.9756    0.2978 H   0  0  0  0  0  0  0  0  0  0  0  0
   -0.3077    1.9575    0.9660 H   0  0  0  0  0  0  0  0  0  0  0  0
   -5.2314   -0.7535    0.9026 H   0  0  0  0  0  0  0  0  0  0  0  0
  1  2  1  0
  2  3  1  0
  3  4  1  0
  4  5  2  0
  5  6  1  0
  6  7  2  0
  7  8  1  0
  7  9  1  0
  9 10  2  0
  6 11  1  0
 11 12  1  0
 11 13  2  0
  2 14  1  0
 14 15  1  0
 14 16  2  0
 10  4  1  0
  1 17  1  0
  1 18  1  0
  2 19  1  6
  3 20  1  0
  3 21  1  0
  5 22  1  0
  8 23  1  0
  9 24  1  0
 10 25  1  0
 15 26  1  0
M  CHG  2  11   1  12  -1
M  END
$$$$

     RDKit          3D

 26 26  0  0  0  0  0  0  0  0999 V2000
    2.2613   -0.9457    0.6810 N   0  0  0  0  0  0  0  0  0  0  0  0
    2.0066   -0.3776   -0.6243 C   0  0  1  0  0  0  0  0  0  0  0  0
    1.1154    0.8209   -0.5568 C   0  0  0  0  0  0  0  0  0  0  0  0
   -0.2180    0.5089    0.0333 C   0  0  0  0  0  0  0  0  0  0  0  0
   -1.2738    0.1055   -0.7792 C   0  0  0  0  0  0  0  0  0  0  0  0
   -2.5085   -0.1833   -0.2348 C   0  0  0  0  0  0  0  0  0  0  0  0
   -2.6415   -0.0541    1.1331 C   0  0  0  0  0  0  0  0  0  0  0  0
   -3.8755   -0.3402    1.6987 O   0  0  0  0  0  0  0  0  0  0  0  0
   -1.5945    0.3463    1.9414 C   0  0  0  0  0  0  0  0  0  0  0  0
   -0.3593    0.6355    1.3990 C   0  0  0  0  0  0  0  0  0  0  0  0
   -3.5981   -0.5970   -1.0523 N   0  0  0  0  0  4  0  0  0  0  0  0
   -4.6220   -1.3903   -0.5876 O   0  0  0  0  0  1  0  0  0  0  0  0
   -3.6668   -0.2449   -2.2567 O   0  0  0  0  0  0  0  0  0  0  0  0
    3.2872    0.0344   -1.2442 C   0  0  0  0  0  0  0  0  0  0  0  0
    4.4726   -0.1464   -0.5808 O   0  0  0  0  0  0  0  0  0  0  0  0
    3.2439    0.5469   -2.3822 O   0  0  0  0  0  0  0  0  0  0  0  0
    2.4860   -0.2088    1.3919 H   0  0  0  0  0  0  0  0  0  0  0  0
    3.0891   -1.5818    0.6728 H   0  0  0  0  0  0  0  0  0  0  0  0
    1.4945   -1.1459   -1.2492 H   0  0  0  0  0  0  0  0  0  0  0  0
    1.6197    1.5859    0.1001 H   0  0  0  0  0  0  0  0  0  0  0  0
    1.0239    1.2936   -1.5421 H   0  0  0  0  0  0  0  0  0  0  0  0
   -1.1240    0.0174   -1.8507 H   0  0  0  0  0  0  0  0  0  0  0  0
   -4.7063    0.1903    1.4672 H   0  0  0  0  0  0  0  0  0  0  0  0
   -1.7253    0.4416    3.0268 H   0  0  0  0  0  0  0  0  0  0  0  0
    0.4824    0.9534    2.0144 H   0  0  0  0  0  0  0  0  0  0  0  0
    5.3313   -0.2645   -1.0953 H   0  0  0  0  0  0  0  0  0  0  0  0
  1  2  1  0
  2  3  1  0
  3  4  1  0
  4  5  2  0
  5  6  1  0
  6  7  2  0
  7  8  1  0
  7  9  1  0
  9 10  2  0
  6 11  1  0
 11 12  1  0
 11 13  2  0
  2 14  1  0
 14 15  1  0
 14 16  2  0
 10  4  1  0
  1 17  1  0
  1 18  1  0
  2 19  1  6
  3 20  1  0
  3 21  1  0
  5 22  1  0
  8 23  1  0
  9 24  1  0
 10 25  1  0
 15 26  1  0
M  CHG  2  11   1  12  -1
M  END
$$$$
