
     RDKit          3D

 35 38  0  0  0  0  0  0  0  0999 V2000
   27.9680   39.2973   92.9440 N   0  0  0  0  0  0  0  0  0  0  0  0
   28.4106   39.4580   94.3360 C   0  0  2  0  0  0  0  0  0  0  0  0
   27.1917   39.3877   95.2567 C   0  0  0  0  0  0  0  0  0  0  0  0
   26.0870   39.0833   94.8119 O   0  0  0  0  0  0  0  0  0  0  0  0
   27.4376   39.6928   96.5293 N   0  0  0  0  0  0  0  0  0  0  0  0
   25.6829   38.3119   97.7897 O   0  0  0  0  0  0  0  0  0  0  0  0
   25.2168   40.6836   97.3593 O   0  0  0  0  0  0  0  0  0  0  0  0
   29.0941   40.8160   94.5202 C   0  0  0  0  0  0  0  0  0  0  0  0
   26.2849   39.6820   97.6831 S   0  0  2  0  0  0  0  0  0  0  0  0
   30.3501   40.9866   93.6624 C   0  0  0  0  0  0  0  0  0  0  0  0
   30.3452   41.8892   92.6028 C   0  0  0  0  0  0  0  0  0  0  0  0
   31.5159   40.2908   93.9731 C   0  0  0  0  0  0  0  0  0  0  0  0
   31.5028   42.0996   91.8595 C   0  0  0  0  0  0  0  0  0  0  0  0
   32.6735   40.4992   93.2290 C   0  0  0  0  0  0  0  0  0  0  0  0
   32.6684   41.4081   92.1727 C   0  0  0  0  0  0  0  0  0  0  0  0
   33.8094   41.6385   91.4697 O   0  0  0  0  0  0  0  0  0  0  0  0
   27.1518   39.1213  100.0186 C   0  0  0  0  0  0  0  0  0  0  0  0
   26.9175   40.0768   98.9835 O   0  0  0  0  0  0  0  0  0  0  0  0
   28.5782   38.5653   99.9896 C   0  0  1  0  0  0  0  0  0  0  0  0
   28.8104   37.8416  101.2094 O   0  0  0  0  0  0  0  0  0  0  0  0
   28.8087   37.5248   98.8930 C   0  0  1  0  0  0  0  0  0  0  0  0
   30.2051   37.2279   98.7922 O   0  0  0  0  0  0  0  0  0  0  0  0
   28.0530   36.3457   99.5080 C   0  0  1  0  0  0  0  0  0  0  0  0
   28.5502   35.1026   99.0072 O   0  0  0  0  0  0  0  0  0  0  0  0
   28.4468   36.4668  100.9817 C   0  0  2  0  0  0  0  0  0  0  0  0
   27.0943   33.5851  105.0245 N   0  0  0  0  0  0  0  0  0  0  0  0
   28.2936   33.7453  104.4903 C   0  0  0  0  0  0  0  0  0  0  0  0
   28.4720   34.5350  103.4442 N   0  0  0  0  0  0  0  0  0  0  0  0
   27.4435   35.1934  102.8891 C   0  0  0  0  0  0  0  0  0  0  0  0
   26.1710   35.0463  103.4239 C   0  0  0  0  0  0  0  0  0  0  0  0
   26.0199   34.2140  104.5256 C   0  0  0  0  0  0  0  0  0  0  0  0
   24.8264   34.0607  105.0914 N   0  0  0  0  0  0  0  0  0  0  0  0
   25.3441   35.7979  102.7028 N   0  0  0  0  0  0  0  0  0  0  0  0
   26.0596   36.3925  101.7525 C   0  0  0  0  0  0  0  0  0  0  0  0
   27.3358   36.0289  101.8590 N   0  0  0  0  0  0  0  0  0  0  0  0
  2  1  1  6
  2  3  1  0
  2  8  1  0
  3  4  1  0
  3  5  2  3
  5  9  1  0
  6  9  2  0
  7  9  2  0
  8 10  1  0
  9 18  1  1
 10 11  2  0
 10 12  1  0
 11 13  1  0
 12 14  2  0
 13 15  2  0
 14 15  1  0
 15 16  1  0
 19 17  1  1
 17 18  1  0
 19 20  1  0
 19 21  1  0
 20 25  1  0
 21 22  1  1
 21 23  1  0
 23 24  1  6
 23 25  1  0
 25 35  1  1
 26 31  2  0
 26 27  1  0
 27 28  2  0
 28 29  1  0
 29 30  2  0
 29 35  1  0
 30 31  1  0
 30 33  1  0
 31 32  1  0
 33 34  2  0
 34 35  1  0
M  END
$$$$
