
     RDKit          3D

 34 37  0  0  0  0  0  0  0  0999 V2000
   27.7155   39.2993   94.9633 C   0  0  2  0  0  0  0  0  0  0  0  0
   26.3050   38.9905   95.4549 C   0  0  0  0  0  0  0  0  0  0  0  0
   28.0522   40.7825   95.0079 C   0  0  0  0  0  0  0  0  0  0  0  0
   29.1180   41.2181   93.9543 C   0  0  0  0  0  0  0  0  0  0  0  0
   28.8875   42.3165   93.1514 C   0  0  0  0  0  0  0  0  0  0  0  0
   30.3066   40.4900   93.8074 C   0  0  0  0  0  0  0  0  0  0  0  0
   29.8425   42.6859   92.2160 C   0  0  0  0  0  0  0  0  0  0  0  0
   31.2564   40.8647   92.8807 C   0  0  0  0  0  0  0  0  0  0  0  0
   31.0179   41.9688   92.0746 C   0  0  0  0  0  0  0  0  0  0  0  0
   27.8272   38.8030   93.5879 N   0  0  0  0  0  0  0  0  0  0  0  0
   31.9334   42.3589   91.1457 O   0  0  0  0  0  0  0  0  0  0  0  0
   25.7706   39.3681   97.8411 P   0  0  0  0  0  0  0  0  0  0  0  0
   24.8590   38.5462   98.8850 O   0  0  0  0  0  0  0  0  0  0  0  0
   25.0481   40.6422   97.3830 O   0  0  0  0  0  0  0  0  0  0  0  0
   27.4399   39.3693   99.8502 C   0  0  0  0  0  0  0  0  0  0  0  0
   27.1804   39.6964   98.4965 O   0  0  0  0  0  0  0  0  0  0  0  0
   28.6987   38.5602   99.9941 C   0  0  1  0  0  0  0  0  0  0  0  0
   28.6390   37.8298  101.2400 O   0  0  0  0  0  0  0  0  0  0  0  0
   28.9076   37.5103   98.9222 C   0  0  1  0  0  0  0  0  0  0  0  0
   30.2937   37.1727   98.8649 O   0  0  0  0  0  0  0  0  0  0  0  0
   28.1114   36.3324   99.4795 C   0  0  1  0  0  0  0  0  0  0  0  0
   28.4900   35.0675   98.9785 O   0  0  0  0  0  0  0  0  0  0  0  0
   28.3766   36.4558  100.9824 C   0  0  2  0  0  0  0  0  0  0  0  0
   27.1652   33.5739  105.0111 N   0  0  0  0  0  0  0  0  0  0  0  0
   28.3523   33.7512  104.4074 C   0  0  0  0  0  0  0  0  0  0  0  0
   28.5046   34.5598  103.3358 N   0  0  0  0  0  0  0  0  0  0  0  0
   27.4199   35.2099  102.8671 C   0  0  0  0  0  0  0  0  0  0  0  0
   26.1642   35.0618  103.4676 C   0  0  0  0  0  0  0  0  0  0  0  0
   26.0622   34.2103  104.5799 C   0  0  0  0  0  0  0  0  0  0  0  0
   24.8192   34.0241  105.2264 N   0  0  0  0  0  0  0  0  0  0  0  0
   25.2824   35.8316  102.7627 N   0  0  0  0  0  0  0  0  0  0  0  0
   25.9647   36.4402  101.7732 C   0  0  0  0  0  0  0  0  0  0  0  0
   27.2536   36.0455  101.8264 N   0  0  0  0  0  0  0  0  0  0  0  0
   26.1540   38.4334   96.6225 O   0  0  0  0  0  0  0  0  0  0  0  0
  1  2  1  0
  1  3  1  0
  1 10  1  6
  2 34  1  0
  3  4  1  0
  4  5  2  0
  4  6  1  0
  5  7  1  0
  6  8  2  0
  7  9  2  0
  8  9  1  0
  9 11  1  0
 12 13  1  0
 12 14  2  0
 12 16  1  0
 12 34  1  0
 17 15  1  6
 15 16  1  0
 17 18  1  0
 17 19  1  0
 18 23  1  0
 19 20  1  1
 19 21  1  0
 21 22  1  6
 21 23  1  0
 23 33  1  1
 24 25  2  0
 24 29  1  0
 25 26  1  0
 26 27  2  0
 27 28  1  0
 27 33  1  0
 28 29  2  0
 28 31  1  0
 29 30  1  0
 31 32  2  0
 32 33  1  0
M  CHG  1  11  -1
M  END
$$$$
