
     RDKit          3D

 23 25  0  0  0  0  0  0  0  0999 V2000
   24.8520   39.0980   98.9800 P   0  0  0  0  0  0  0  0  0  0  0  0
   24.9950   40.0190   97.7610 O   0  0  0  0  0  0  0  0  0  0  0  0
   24.0250   37.8170   98.8280 O   0  0  0  0  0  0  0  0  0  0  0  0
   24.4480   39.8200  100.2410 O   0  0  0  0  0  0  0  0  0  0  0  0
   27.5090   39.4020   99.1840 C   0  0  0  0  0  0  0  0  0  0  0  0
   26.3670   38.5290   99.0760 O   0  0  0  0  0  0  0  0  0  0  0  0
   28.6960   38.5750   99.6550 C   0  0  1  0  0  0  0  0  0  0  0  0
   28.4210   38.2410  101.0280 O   0  0  0  0  0  0  0  0  0  0  0  0
   28.8590   37.2540   98.8980 C   0  0  1  0  0  0  0  0  0  0  0  0
   30.2350   36.8000   98.7360 O   0  0  0  0  0  0  0  0  0  0  0  0
   28.1460   36.2710   99.8020 C   0  0  1  0  0  0  0  0  0  0  0  0
   28.6290   34.9250   99.6320 O   0  0  0  0  0  0  0  0  0  0  0  0
   28.3860   36.8500  101.2110 C   0  0  2  0  0  0  0  0  0  0  0  0
   27.1550   33.3320  104.6740 N   0  0  0  0  0  0  0  0  0  0  0  0
   28.3770   33.6320  104.1920 C   0  0  0  0  0  0  0  0  0  0  0  0
   28.5810   34.6070  103.3090 N   0  0  0  0  0  0  0  0  0  0  0  0
   27.4760   35.3080  102.8740 C   0  0  0  0  0  0  0  0  0  0  0  0
   26.1480   35.0300  103.3740 C   0  0  0  0  0  0  0  0  0  0  0  0
   26.0240   33.9470  104.3250 C   0  0  0  0  0  0  0  0  0  0  0  0
   24.8340   33.5950  104.8250 N   0  0  0  0  0  0  0  0  0  0  0  0
   25.2660   35.8580  102.7760 N   0  0  0  0  0  0  0  0  0  0  0  0
   25.9830   36.6420  101.9640 C   0  0  0  0  0  0  0  0  0  0  0  0
   27.3040   36.3410  102.0430 N   0  0  0  0  0  0  0  0  0  0  0  0
  1  2  1  0
  1  3  1  0
  1  4  2  0
  1  6  1  0
  7  5  1  6
  5  6  1  0
  7  8  1  0
  7  9  1  0
  8 13  1  0
  9 10  1  1
  9 11  1  0
 11 12  1  1
 11 13  1  0
 13 23  1  1
 14 15  2  0
 14 19  1  0
 15 16  1  0
 16 17  2  0
 17 18  1  0
 17 23  1  0
 18 19  2  0
 18 21  1  0
 19 20  1  0
 21 22  2  0
 22 23  1  0
M  END
$$$$
