
     RDKit          3D

 37 40  0  0  0  0  0  0  0  0999 V2000
   26.7855   38.9292   93.0779 N   0  0  0  0  0  0  0  0  0  0  0  0
   27.2519   39.2742   94.4337 C   0  0  2  0  0  0  0  0  0  0  0  0
   26.0829   39.2407   95.3971 C   0  0  0  0  0  0  0  0  0  0  0  0
   24.8918   39.2312   95.1117 O   0  0  0  0  0  0  0  0  0  0  0  0
   27.7754   40.7144   94.5634 C   0  0  0  0  0  0  0  0  0  0  0  0
   26.2376   31.2016  105.6310 O   0  0  0  0  0  0  0  0  0  0  0  0
   27.6249   39.5890   99.2760 C   0  0  0  0  0  0  0  0  0  0  0  0
   26.3867   38.8418   99.1436 O   0  0  0  0  0  0  0  0  0  0  0  0
   28.6843   38.6251   99.7478 C   0  0  1  0  0  0  0  0  0  0  0  0
   28.3107   38.1033  101.0447 O   0  0  0  0  0  0  0  0  0  0  0  0
   28.9253   37.4071   98.8491 C   0  0  1  0  0  0  0  0  0  0  0  0
   30.3076   37.0603   98.7817 O   0  0  0  0  0  0  0  0  0  0  0  0
   28.1416   36.3013   99.5550 C   0  0  1  0  0  0  0  0  0  0  0  0
   28.7131   35.0146   99.3869 O   0  0  0  0  0  0  0  0  0  0  0  0
   28.3565   36.6889  101.0124 C   0  0  2  0  0  0  0  0  0  0  0  0
   28.3161   33.5311  104.3532 C   0  0  0  0  0  0  0  0  0  0  0  0
   24.3166   38.4294   97.8776 O   0  0  0  0  0  0  0  0  0  0  0  0
   27.0647   33.3843  104.9441 C   0  0  0  0  0  0  0  0  0  0  0  0
   26.8634   32.3992  106.0679 C   0  0  0  0  0  0  0  0  0  0  0  0
   25.2524   40.7103   98.0736 O   0  0  0  0  0  0  0  0  0  0  0  0
   26.0011   34.1524  104.4887 C   0  0  0  0  0  0  0  0  0  0  0  0
   26.4372   39.2399   96.7293 N   0  0  0  0  0  0  0  0  0  0  0  0
   28.7921   41.1266   93.5378 C   0  0  0  0  0  0  0  0  0  0  0  0
   26.2000   35.0629  103.4558 C   0  0  0  0  0  0  0  0  0  0  0  0
   30.0671   40.5758   93.5325 C   0  0  0  0  0  0  0  0  0  0  0  0
   27.4684   35.1991  102.8754 C   0  0  0  0  0  0  0  0  0  0  0  0
   31.0319   41.0065   92.6407 C   0  0  0  0  0  0  0  0  0  0  0  0
   28.5561   34.4279  103.3008 C   0  0  0  0  0  0  0  0  0  0  0  0
   29.8214   34.4662  102.7236 N   0  0  0  0  0  0  0  0  0  0  0  0
   30.7267   42.0055   91.7302 C   0  0  0  0  0  0  0  0  0  0  0  0
   27.3268   36.1699  101.9049 N   0  0  0  0  0  0  0  0  0  0  0  0
   26.0138   36.5561  101.9450 C   0  0  0  0  0  0  0  0  0  0  0  0
   31.6721   42.4667   90.8567 O   0  0  0  0  0  0  0  0  0  0  0  0
   29.4531   42.5557   91.7072 C   0  0  0  0  0  0  0  0  0  0  0  0
   25.2999   35.9287  102.8476 N   0  0  0  0  0  0  0  0  0  0  0  0
   28.5022   42.1127   92.6069 C   0  0  0  0  0  0  0  0  0  0  0  0
   25.4296   39.3074   97.9576 S   0  0  1  0  0  0  0  0  0  0  0  0
  2  1  1  6
  2  3  1  0
  2  5  1  0
  3  4  1  0
  3 22  2  3
  5 23  1  0
  6 19  1  0
  7  8  1  0
  9  7  1  6
 37  8  1  1
  9 10  1  0
  9 11  1  0
 10 15  1  0
 11 12  1  1
 11 13  1  0
 13 14  1  1
 13 15  1  0
 15 31  1  1
 16 18  2  0
 16 28  1  0
 17 37  2  0
 18 19  1  0
 18 21  1  0
 20 37  2  0
 21 24  2  0
 22 37  1  0
 23 25  2  0
 23 36  1  0
 24 26  1  0
 24 35  1  0
 25 27  1  0
 26 28  2  0
 26 31  1  0
 27 30  2  0
 28 29  1  0
 30 33  1  0
 30 34  1  0
 31 32  1  0
 32 35  2  0
 34 36  2  0
M  END
$$$$
