
     RDKit          3D

 31 33  0  0  0  0  0  0  0  0999 V2000
   25.0771   39.6450   98.5956 P   0  0  0  0  0  0  0  0  0  0  0  0
   23.1997   37.3195   98.5606 P   0  0  0  0  0  0  0  0  0  0  0  0
   21.7315   37.3167  101.0104 P   0  0  0  0  0  0  0  0  0  0  0  0
   27.5949   39.4177   99.3281 C   0  0  0  0  0  0  0  0  0  0  0  0
   26.2544   38.9120   99.3658 O   0  0  0  0  0  0  0  0  0  0  0  0
   28.5553   38.3142   99.6893 C   0  0  1  0  0  0  0  0  0  0  0  0
   28.3798   37.9624  101.0797 O   0  0  0  0  0  0  0  0  0  0  0  0
   28.2851   37.0287   98.9310 C   0  0  1  0  0  0  0  0  0  0  0  0
   29.0385   37.0249   97.7199 O   0  0  0  0  0  0  0  0  0  0  0  0
   28.7925   35.9454   99.8643 C   0  0  1  0  0  0  0  0  0  0  0  0
   30.1726   35.7553   99.6568 O   0  0  0  0  0  0  0  0  0  0  0  0
   28.5335   36.5676  101.2394 C   0  0  2  0  0  0  0  0  0  0  0  0
   26.9528   33.4205  104.9705 N   0  0  0  0  0  0  0  0  0  0  0  0
   25.6797   40.4043   97.4477 O   0  0  0  0  0  0  0  0  0  0  0  0
   23.9730   36.0200   98.6158 O   0  0  0  0  0  0  0  0  0  0  0  0
   21.5115   38.5319  101.8875 O   0  0  0  0  0  0  0  0  0  0  0  0
   28.1625   33.6936  104.4707 C   0  0  0  0  0  0  0  0  0  0  0  0
   24.2551   40.3774   99.6131 O   0  0  0  0  0  0  0  0  0  0  0  0
   21.8497   37.3553   97.8759 O   0  0  0  0  0  0  0  0  0  0  0  0
   20.6661   37.0177   99.9678 O   0  0  0  0  0  0  0  0  0  0  0  0
   28.5049   34.5358  103.4988 N   0  0  0  0  0  0  0  0  0  0  0  0
   24.1539   38.4815   97.9658 O   0  0  0  0  0  0  0  0  0  0  0  0
   22.9081   37.8093  100.0491 O   0  0  0  0  0  0  0  0  0  0  0  0
   22.4011   36.1293  101.6576 O   0  0  0  0  0  0  0  0  0  0  0  0
   27.4206   35.1465  102.9998 C   0  0  0  0  0  0  0  0  0  0  0  0
   26.1119   34.9774  103.4082 C   0  0  0  0  0  0  0  0  0  0  0  0
   25.8854   34.0640  104.4589 C   0  0  0  0  0  0  0  0  0  0  0  0
   24.6807   33.8048  104.9767 N   0  0  0  0  0  0  0  0  0  0  0  0
   25.2573   35.7745  102.6561 N   0  0  0  0  0  0  0  0  0  0  0  0
   26.0566   36.3951  101.8232 C   0  0  0  0  0  0  0  0  0  0  0  0
   27.3782   36.0614  101.9769 N   0  0  0  0  0  0  0  0  0  0  0  0
  1  5  1  0
  1 14  1  0
  1 18  2  0
  1 22  1  0
  2 15  1  0
  2 19  2  0
  2 22  1  0
  2 23  1  0
  3 16  1  0
  3 20  1  0
  3 23  1  0
  3 24  2  0
  6  4  1  6
  4  5  1  0
  6  7  1  0
  6  8  1  0
  7 12  1  0
  8  9  1  6
  8 10  1  0
 10 11  1  6
 10 12  1  0
 12 31  1  6
 13 17  2  0
 13 27  1  0
 17 21  1  0
 21 25  2  0
 25 26  1  0
 25 31  1  0
 26 27  2  0
 26 29  1  0
 27 28  1  0
 29 30  2  0
 30 31  1  0
M  END
$$$$
