
     RDKit          3D

 31 33  0  0  0  0  0  0  0  0999 V2000
   24.9811   39.5683   98.7893 P   0  0  0  0  0  0  0  0  0  0  0  0
   22.8999   38.8169  100.7805 P   0  0  0  0  0  0  0  0  0  0  0  0
   20.3961   39.6715   99.5221 P   0  0  0  0  0  0  0  0  0  0  0  0
   27.6178   39.5760   99.3422 C   0  0  0  0  0  0  0  0  0  0  0  0
   26.4024   38.9153   98.8286 O   0  0  0  0  0  0  0  0  0  0  0  0
   28.5874   38.5558   99.7656 C   0  0  1  0  0  0  0  0  0  0  0  0
   28.2238   37.9161  101.0069 O   0  0  0  0  0  0  0  0  0  0  0  0
   28.9423   37.3873   98.8177 C   0  0  1  0  0  0  0  0  0  0  0  0
   30.3512   37.1509   98.8231 O   0  0  0  0  0  0  0  0  0  0  0  0
   28.1303   36.2900   99.4950 C   0  0  1  0  0  0  0  0  0  0  0  0
   28.3420   34.9493   99.1181 O   0  0  0  0  0  0  0  0  0  0  0  0
   28.4027   36.5431  100.9865 C   0  0  2  0  0  0  0  0  0  0  0  0
   27.2104   33.5108  105.1467 N   0  0  0  0  0  0  0  0  0  0  0  0
   24.1498   38.7645   97.8715 O   0  0  0  0  0  0  0  0  0  0  0  0
   22.7446   37.3867  100.4282 O   0  0  0  0  0  0  0  0  0  0  0  0
   20.5041   38.8323   98.3001 O   0  0  0  0  0  0  0  0  0  0  0  0
   28.4861   33.7577  104.5930 C   0  0  0  0  0  0  0  0  0  0  0  0
   25.1177   40.9952   98.5141 O   0  0  0  0  0  0  0  0  0  0  0  0
   22.8435   38.9250  102.2466 O   0  0  0  0  0  0  0  0  0  0  0  0
   19.8855   40.9944   99.1217 O   0  0  0  0  0  0  0  0  0  0  0  0
   28.6057   34.5803  103.4820 N   0  0  0  0  0  0  0  0  0  0  0  0
   24.3383   39.3423  100.2643 O   0  0  0  0  0  0  0  0  0  0  0  0
   21.8502   39.8252  100.1759 O   0  0  0  0  0  0  0  0  0  0  0  0
   19.5158   39.0239  100.5365 O   0  0  0  0  0  0  0  0  0  0  0  0
   27.4650   35.1468  102.9544 C   0  0  0  0  0  0  0  0  0  0  0  0
   26.1681   34.9194  103.4857 C   0  0  0  0  0  0  0  0  0  0  0  0
   26.0259   34.0548  104.6457 C   0  0  0  0  0  0  0  0  0  0  0  0
   24.8714   33.7700  105.2387 N   0  0  0  0  0  0  0  0  0  0  0  0
   25.2191   35.5971  102.7597 N   0  0  0  0  0  0  0  0  0  0  0  0
   25.9450   36.2404  101.7990 C   0  0  0  0  0  0  0  0  0  0  0  0
   27.3079   35.9827  101.8936 N   0  0  0  0  0  0  0  0  0  0  0  0
  1  5  1  0
  1 14  1  0
  1 18  2  0
  1 22  1  0
  2 15  1  0
  2 19  2  0
  2 22  1  0
  2 23  1  0
  3 16  1  0
  3 20  1  0
  3 23  1  0
  3 24  2  0
  6  4  1  6
  4  5  1  0
  6  7  1  0
  6  8  1  0
  7 12  1  0
  8  9  1  1
  8 10  1  0
 10 11  1  6
 10 12  1  0
 12 31  1  1
 13 17  2  0
 13 27  1  0
 17 21  1  0
 21 25  2  0
 25 26  1  0
 25 31  1  0
 26 27  2  0
 26 29  1  0
 27 28  1  0
 29 30  2  0
 30 31  1  0
M  END
$$$$
