
     RDKit          3D

 31 33  0  0  0  0  0  0  0  0999 V2000
   24.9836   39.6343   98.9107 P   0  0  0  0  0  0  0  0  0  0  0  0
   22.9042   38.8467  100.8675 P   0  0  0  0  0  0  0  0  0  0  0  0
   20.3963   39.6702   99.5972 P   0  0  0  0  0  0  0  0  0  0  0  0
   27.6122   39.5289   99.2923 C   0  0  0  0  0  0  0  0  0  0  0  0
   26.3410   38.8681   98.9512 O   0  0  0  0  0  0  0  0  0  0  0  0
   28.5929   38.5351   99.7475 C   0  0  1  0  0  0  0  0  0  0  0  0
   28.2137   37.9257  100.9939 O   0  0  0  0  0  0  0  0  0  0  0  0
   28.9668   37.3497   98.8258 C   0  0  1  0  0  0  0  0  0  0  0  0
   30.3654   37.0822   98.8975 O   0  0  0  0  0  0  0  0  0  0  0  0
   28.1298   36.2745   99.4964 C   0  0  1  0  0  0  0  0  0  0  0  0
   28.3780   34.9306   99.1709 O   0  0  0  0  0  0  0  0  0  0  0  0
   28.3886   36.5584  100.9813 C   0  0  2  0  0  0  0  0  0  0  0  0
   27.2193   33.5309  105.1043 N   0  0  0  0  0  0  0  0  0  0  0  0
   24.1066   38.9535   97.9489 O   0  0  0  0  0  0  0  0  0  0  0  0
   22.7643   37.4189  100.4898 O   0  0  0  0  0  0  0  0  0  0  0  0
   20.5381   38.7998   98.4049 O   0  0  0  0  0  0  0  0  0  0  0  0
   28.4965   33.8084  104.5739 C   0  0  0  0  0  0  0  0  0  0  0  0
   25.2413   41.0738   98.7003 O   0  0  0  0  0  0  0  0  0  0  0  0
   22.8669   38.9344  102.3255 O   0  0  0  0  0  0  0  0  0  0  0  0
   19.8786   40.9840   99.1743 O   0  0  0  0  0  0  0  0  0  0  0  0
   28.6090   34.6417  103.4689 N   0  0  0  0  0  0  0  0  0  0  0  0
   24.3364   39.4043  100.3723 O   0  0  0  0  0  0  0  0  0  0  0  0
   21.8439   39.8542  100.2561 O   0  0  0  0  0  0  0  0  0  0  0  0
   19.5281   39.0258  100.6021 O   0  0  0  0  0  0  0  0  0  0  0  0
   27.4650   35.1769  102.9313 C   0  0  0  0  0  0  0  0  0  0  0  0
   26.1693   34.9217  103.4435 C   0  0  0  0  0  0  0  0  0  0  0  0
   26.0333   34.0503  104.5908 C   0  0  0  0  0  0  0  0  0  0  0  0
   24.8796   33.7397  105.1625 N   0  0  0  0  0  0  0  0  0  0  0  0
   25.2134   35.5850  102.7148 N   0  0  0  0  0  0  0  0  0  0  0  0
   25.9361   36.2384  101.7644 C   0  0  0  0  0  0  0  0  0  0  0  0
   27.2999   36.0011  101.8736 N   0  0  0  0  0  0  0  0  0  0  0  0
  1  5  1  0
  1 14  1  0
  1 18  2  0
  1 22  1  0
  2 15  1  0
  2 19  2  0
  2 22  1  0
  2 23  1  0
  3 16  1  0
  3 20  1  0
  3 23  1  0
  3 24  2  0
  6  4  1  6
  4  5  1  0
  6  7  1  0
  6  8  1  0
  7 12  1  0
  8  9  1  1
  8 10  1  0
 10 11  1  6
 10 12  1  0
 12 31  1  1
 13 17  2  0
 13 27  1  0
 17 21  1  0
 21 25  2  0
 25 26  1  0
 25 31  1  0
 26 27  2  0
 26 29  1  0
 27 28  1  0
 29 30  2  0
 30 31  1  0
M  END
$$$$
