
     RDKit          3D

 31 33  0  0  0  0  0  0  0  0999 V2000
   24.7519   39.4641   98.7457 P   0  0  0  0  0  0  0  0  0  0  0  0
   23.1796   36.9435   98.8839 P   0  0  0  0  0  0  0  0  0  0  0  0
   21.2845   38.5842  100.3277 P   0  0  0  0  0  0  0  0  0  0  0  0
   27.2339   38.6582   99.2373 C   0  0  0  0  0  0  0  0  0  0  0  0
   26.1164   39.2415   99.2389 O   0  0  0  0  0  0  0  0  0  0  0  0
   28.6100   38.4330   99.7047 C   0  0  1  0  0  0  0  0  0  0  0  0
   28.4468   38.0278  101.1059 O   0  0  0  0  0  0  0  0  0  0  0  0
   28.8685   37.2907   98.7899 C   0  0  1  0  0  0  0  0  0  0  0  0
   30.1330   37.3262   98.1376 O   0  0  0  0  0  0  0  0  0  0  0  0
   28.5675   36.0423   99.6909 C   0  0  1  0  0  0  0  0  0  0  0  0
   29.5881   35.0556   99.5460 O   0  0  0  0  0  0  0  0  0  0  0  0
   28.4700   36.5657  101.1773 C   0  0  2  0  0  0  0  0  0  0  0  0
   27.0226   33.3621  104.8965 N   0  0  0  0  0  0  0  0  0  0  0  0
   24.7505   40.4610   99.8135 O   0  0  0  0  0  0  0  0  0  0  0  0
   23.6588   36.6776   97.5415 O   0  0  0  0  0  0  0  0  0  0  0  0
   20.4670   39.7655   99.9505 O   0  0  0  0  0  0  0  0  0  0  0  0
   28.2321   33.5417  104.2930 C   0  0  0  0  0  0  0  0  0  0  0  0
   24.9641   39.8397   97.3408 O   0  0  0  0  0  0  0  0  0  0  0  0
   23.4678   36.0510  100.0070 O   0  0  0  0  0  0  0  0  0  0  0  0
   22.2826   38.7939  101.4103 O   0  0  0  0  0  0  0  0  0  0  0  0
   28.5073   34.4210  103.3093 N   0  0  0  0  0  0  0  0  0  0  0  0
   24.4761   37.9684   99.0637 O   0  0  0  0  0  0  0  0  0  0  0  0
   22.1575   38.1246   99.0890 O   0  0  0  0  0  0  0  0  0  0  0  0
   20.3890   37.4524  100.6161 O   0  0  0  0  0  0  0  0  0  0  0  0
   27.3588   35.1967  102.9471 C   0  0  0  0  0  0  0  0  0  0  0  0
   26.0923   35.1041  103.4834 C   0  0  0  0  0  0  0  0  0  0  0  0
   25.9286   34.1462  104.5013 C   0  0  0  0  0  0  0  0  0  0  0  0
   24.7461   33.9770  105.0696 N   0  0  0  0  0  0  0  0  0  0  0  0
   25.2228   36.0067  102.8990 N   0  0  0  0  0  0  0  0  0  0  0  0
   25.9700   36.6049  102.0284 C   0  0  0  0  0  0  0  0  0  0  0  0
   27.2934   36.1533  102.0010 N   0  0  0  0  0  0  0  0  0  0  0  0
  1  5  1  0
  1 14  1  0
  1 18  2  0
  1 22  1  0
  2 15  1  0
  2 19  2  0
  2 22  1  0
  2 23  1  0
  3 16  1  0
  3 20  1  0
  3 23  1  0
  3 24  2  0
  6  4  1  6
  4  5  1  0
  6  7  1  0
  6  8  1  0
  7 12  1  0
  8  9  1  1
  8 10  1  0
 10 11  1  1
 10 12  1  0
 12 31  1  6
 13 17  2  0
 13 27  1  0
 17 21  1  0
 21 25  2  0
 25 26  1  0
 25 31  1  0
 26 27  2  0
 26 29  1  0
 27 28  1  0
 29 30  2  0
 30 31  1  0
M  END
$$$$
