
     RDKit          3D

 35 38  0  0  0  0  0  0  0  0999 V2000
   27.8394   38.7100   92.6216 N   0  0  0  0  0  0  0  0  0  0  0  0
   28.2803   39.0325   93.9869 C   0  0  2  0  0  0  0  0  0  0  0  0
   27.0960   38.9005   94.9411 C   0  0  0  0  0  0  0  0  0  0  0  0
   26.0261   38.4250   94.5576 O   0  0  0  0  0  0  0  0  0  0  0  0
   27.3220   39.3545   96.1725 N   0  0  0  0  0  0  0  0  0  0  0  0
   25.7811   37.8854   97.6099 O   0  0  0  0  0  0  0  0  0  0  0  0
   24.9860   40.0888   96.8844 O   0  0  0  0  0  0  0  0  0  0  0  0
   28.8022   40.4716   94.0411 C   0  0  0  0  0  0  0  0  0  0  0  0
   26.1835   39.3057   97.3355 S   0  0  2  0  0  0  0  0  0  0  0  0
   30.0624   40.6711   93.1968 C   0  0  0  0  0  0  0  0  0  0  0  0
   30.0225   41.4841   92.0693 C   0  0  0  0  0  0  0  0  0  0  0  0
   31.2544   40.0544   93.5681 C   0  0  0  0  0  0  0  0  0  0  0  0
   31.1748   41.6834   91.3136 C   0  0  0  0  0  0  0  0  0  0  0  0
   32.4066   40.2548   92.8133 C   0  0  0  0  0  0  0  0  0  0  0  0
   32.3677   41.0700   91.6875 C   0  0  0  0  0  0  0  0  0  0  0  0
   33.4953   41.2633   90.9511 O   0  0  0  0  0  0  0  0  0  0  0  0
   26.9117   39.1854   99.7928 C   0  0  0  0  0  0  0  0  0  0  0  0
   26.7441   39.9270   98.5816 O   0  0  0  0  0  0  0  0  0  0  0  0
   28.3016   38.5547   99.9206 C   0  0  1  0  0  0  0  0  0  0  0  0
   28.4043   37.9198  101.2084 O   0  0  0  0  0  0  0  0  0  0  0  0
   28.5390   37.4322   98.9076 C   0  0  1  0  0  0  0  0  0  0  0  0
   29.9297   37.1052   98.8500 O   0  0  0  0  0  0  0  0  0  0  0  0
   27.7690   36.3029   99.5893 C   0  0  1  0  0  0  0  0  0  0  0  0
   28.2518   35.0499   99.0981 O   0  0  0  0  0  0  0  0  0  0  0  0
   28.2246   36.5016  101.0366 C   0  0  2  0  0  0  0  0  0  0  0  0
   27.4288   33.4195  105.0979 N   0  0  0  0  0  0  0  0  0  0  0  0
   28.5569   33.6504  104.4471 C   0  0  0  0  0  0  0  0  0  0  0  0
   28.5902   34.4693  103.4090 N   0  0  0  0  0  0  0  0  0  0  0  0
   27.4820   35.0944  102.9825 C   0  0  0  0  0  0  0  0  0  0  0  0
   26.2807   34.8741  103.6447 C   0  0  0  0  0  0  0  0  0  0  0  0
   26.2795   34.0040  104.7306 C   0  0  0  0  0  0  0  0  0  0  0  0
   25.1559   33.7574  105.3980 N   0  0  0  0  0  0  0  0  0  0  0  0
   25.3539   35.6117  103.0449 N   0  0  0  0  0  0  0  0  0  0  0  0
   25.9441   36.2729  102.0531 C   0  0  0  0  0  0  0  0  0  0  0  0
   27.2386   35.9611  102.0025 N   0  0  0  0  0  0  0  0  0  0  0  0
  2  1  1  6
  2  3  1  0
  2  8  1  0
  3  4  1  0
  3  5  2  3
  5  9  1  0
  6  9  2  0
  7  9  2  0
  8 10  1  0
  9 18  1  1
 10 11  2  0
 10 12  1  0
 11 13  1  0
 12 14  2  0
 13 15  2  0
 14 15  1  0
 15 16  1  0
 19 17  1  6
 17 18  1  0
 19 20  1  0
 19 21  1  0
 20 25  1  0
 21 22  1  1
 21 23  1  0
 23 24  1  6
 23 25  1  0
 25 35  1  1
 26 31  2  0
 26 27  1  0
 27 28  2  0
 28 29  1  0
 29 30  2  0
 29 35  1  0
 30 31  1  0
 30 33  1  0
 31 32  1  0
 33 34  2  0
 34 35  1  0
M  END
$$$$
