
     RDKit          3D

 35 38  0  0  0  0  0  0  0  0999 V2000
   27.4368   38.9803   92.8931 N   0  0  0  0  0  0  0  0  0  0  0  0
   27.9134   39.2067   94.2646 C   0  0  2  0  0  0  0  0  0  0  0  0
   26.7313   39.0890   95.2276 C   0  0  0  0  0  0  0  0  0  0  0  0
   25.6336   38.7061   94.8286 O   0  0  0  0  0  0  0  0  0  0  0  0
   26.9990   39.4442   96.4827 N   0  0  0  0  0  0  0  0  0  0  0  0
   25.3738   37.9960   97.8376 O   0  0  0  0  0  0  0  0  0  0  0  0
   24.7496   40.3222   97.3612 O   0  0  0  0  0  0  0  0  0  0  0  0
   28.5180   40.6081   94.3898 C   0  0  0  0  0  0  0  0  0  0  0  0
   25.8869   39.3964   97.6748 S   0  0  2  0  0  0  0  0  0  0  0  0
   29.7329   40.8299   93.4858 C   0  0  0  0  0  0  0  0  0  0  0  0
   29.6386   41.7002   92.4037 C   0  0  0  0  0  0  0  0  0  0  0  0
   30.9485   40.2147   93.7749 C   0  0  0  0  0  0  0  0  0  0  0  0
   30.7566   41.9590   91.6163 C   0  0  0  0  0  0  0  0  0  0  0  0
   32.0666   40.4714   92.9869 C   0  0  0  0  0  0  0  0  0  0  0  0
   31.9718   41.3483   91.9079 C   0  0  0  0  0  0  0  0  0  0  0  0
   33.0733   41.6271   91.1608 O   0  0  0  0  0  0  0  0  0  0  0  0
   26.8614   38.9552   99.9935 C   0  0  0  0  0  0  0  0  0  0  0  0
   26.5358   39.8652   98.9422 O   0  0  0  0  0  0  0  0  0  0  0  0
   28.3175   38.4856   99.9307 C   0  0  1  0  0  0  0  0  0  0  0  0
   28.6327   37.8120  101.1604 O   0  0  0  0  0  0  0  0  0  0  0  0
   28.5758   37.4304   98.8545 C   0  0  1  0  0  0  0  0  0  0  0  0
   29.9838   37.2156   98.7144 O   0  0  0  0  0  0  0  0  0  0  0  0
   27.9139   36.2257   99.5256 C   0  0  1  0  0  0  0  0  0  0  0  0
   28.4699   35.0012   99.0409 O   0  0  0  0  0  0  0  0  0  0  0  0
   28.3469   36.4119  100.9813 C   0  0  2  0  0  0  0  0  0  0  0  0
   27.3043   33.5691  105.1418 N   0  0  0  0  0  0  0  0  0  0  0  0
   28.4737   33.7862  104.5633 C   0  0  0  0  0  0  0  0  0  0  0  0
   28.5696   34.5553  103.4914 N   0  0  0  0  0  0  0  0  0  0  0  0
   27.4854   35.1346  102.9543 C   0  0  0  0  0  0  0  0  0  0  0  0
   26.2422   34.9261  103.5357 C   0  0  0  0  0  0  0  0  0  0  0  0
   26.1779   34.1177  104.6633 C   0  0  0  0  0  0  0  0  0  0  0  0
   25.0149   33.9087  105.2730 N   0  0  0  0  0  0  0  0  0  0  0  0
   25.3480   35.6058  102.8235 N   0  0  0  0  0  0  0  0  0  0  0  0
   25.9947   36.2155  101.8343 C   0  0  0  0  0  0  0  0  0  0  0  0
   27.2936   35.9326  101.9070 N   0  0  0  0  0  0  0  0  0  0  0  0
  2  1  1  6
  2  3  1  0
  2  8  1  0
  3  4  1  0
  3  5  2  3
  5  9  1  0
  6  9  2  0
  7  9  2  0
  8 10  1  0
  9 18  1  1
 10 11  2  0
 10 12  1  0
 11 13  1  0
 12 14  2  0
 13 15  2  0
 14 15  1  0
 15 16  1  0
 19 17  1  1
 17 18  1  0
 19 20  1  0
 19 21  1  0
 20 25  1  0
 21 22  1  1
 21 23  1  0
 23 24  1  6
 23 25  1  0
 25 35  1  1
 26 31  2  0
 26 27  1  0
 27 28  2  0
 28 29  1  0
 29 30  2  0
 29 35  1  0
 30 31  1  0
 30 33  1  0
 31 32  1  0
 33 34  2  0
 34 35  1  0
M  END
$$$$
