
     RDKit          3D

 35 38  0  0  0  0  0  0  0  0999 V2000
   27.0210   38.9369   93.4496 N   0  0  0  0  0  0  0  0  0  0  0  0
   27.4251   39.4621   94.7620 C   0  0  2  0  0  0  0  0  0  0  0  0
   26.2940   39.3020   95.7829 C   0  0  0  0  0  0  0  0  0  0  0  0
   25.1279   39.2380   95.3973 O   0  0  0  0  0  0  0  0  0  0  0  0
   26.6419   39.2549   97.0673 N   0  0  0  0  0  0  0  0  0  0  0  0
   24.3464   38.6572   98.3635 O   0  0  0  0  0  0  0  0  0  0  0  0
   25.1174   41.1190   98.1454 O   0  0  0  0  0  0  0  0  0  0  0  0
   27.7454   40.9541   94.6578 C   0  0  0  0  0  0  0  0  0  0  0  0
   25.4312   39.6531   98.0902 S   0  0  2  0  0  0  0  0  0  0  0  0
   28.8106   41.2801   93.6072 C   0  0  0  0  0  0  0  0  0  0  0  0
   28.5487   42.2884   92.6861 C   0  0  0  0  0  0  0  0  0  0  0  0
   30.0477   40.6443   93.6131 C   0  0  0  0  0  0  0  0  0  0  0  0
   29.5275   42.6728   91.7750 C   0  0  0  0  0  0  0  0  0  0  0  0
   31.0286   41.0313   92.7067 C   0  0  0  0  0  0  0  0  0  0  0  0
   30.7681   42.0462   91.7911 C   0  0  0  0  0  0  0  0  0  0  0  0
   31.7267   42.4499   90.9143 O   0  0  0  0  0  0  0  0  0  0  0  0
   26.7747   38.3248   99.6153 C   0  0  0  0  0  0  0  0  0  0  0  0
   26.1599   39.5711   99.3129 O   0  0  0  0  0  0  0  0  0  0  0  0
   28.2934   38.4529   99.7265 C   0  0  1  0  0  0  0  0  0  0  0  0
   28.6265   38.0186  101.0541 O   0  0  0  0  0  0  0  0  0  0  0  0
   28.7989   37.3119   98.8438 C   0  0  1  0  0  0  0  0  0  0  0  0
   30.2257   37.2335   98.8998 O   0  0  0  0  0  0  0  0  0  0  0  0
   28.1326   36.1807   99.6252 C   0  0  1  0  0  0  0  0  0  0  0  0
   28.7302   34.9223   99.3037 O   0  0  0  0  0  0  0  0  0  0  0  0
   28.4725   36.5884  101.0614 C   0  0  2  0  0  0  0  0  0  0  0  0
   27.1637   33.4288  104.9092 N   0  0  0  0  0  0  0  0  0  0  0  0
   28.3559   33.6505  104.3834 C   0  0  0  0  0  0  0  0  0  0  0  0
   28.5387   34.5274  103.4118 N   0  0  0  0  0  0  0  0  0  0  0  0
   27.5026   35.2281  102.9267 C   0  0  0  0  0  0  0  0  0  0  0  0
   26.2371   35.0266  103.4582 C   0  0  0  0  0  0  0  0  0  0  0  0
   26.0840   34.0940  104.4767 C   0  0  0  0  0  0  0  0  0  0  0  0
   24.8864   33.8533  105.0032 N   0  0  0  0  0  0  0  0  0  0  0  0
   25.3975   35.8171  102.7940 N   0  0  0  0  0  0  0  0  0  0  0  0
   26.1032   36.4842  101.8844 C   0  0  0  0  0  0  0  0  0  0  0  0
   27.3855   36.1278  101.9559 N   0  0  0  0  0  0  0  0  0  0  0  0
  2  1  1  6
  2  3  1  0
  2  8  1  0
  3  4  1  0
  3  5  2  3
  5  9  1  0
  6  9  2  0
  7  9  2  0
  8 10  1  0
  9 18  1  1
 10 11  2  0
 10 12  1  0
 11 13  1  0
 12 14  2  0
 13 15  2  0
 14 15  1  0
 15 16  1  0
 19 17  1  1
 17 18  1  0
 19 20  1  0
 19 21  1  0
 20 25  1  0
 21 22  1  1
 21 23  1  0
 23 24  1  6
 23 25  1  0
 25 35  1  1
 26 31  2  0
 26 27  1  0
 27 28  2  0
 28 29  1  0
 29 30  2  0
 29 35  1  0
 30 31  1  0
 30 33  1  0
 31 32  1  0
 33 34  2  0
 34 35  1  0
M  END
$$$$
