
     RDKit          3D

 34 37  0  0  0  0  0  0  0  0999 V2000
   27.6946   39.0952   94.4226 C   0  0  2  0  0  0  0  0  0  0  0  0
   27.1551   38.5502   95.7168 C   0  0  0  0  0  0  0  0  0  0  0  0
   28.0891   40.5666   94.5014 C   0  0  0  0  0  0  0  0  0  0  0  0
   29.0741   40.8946   93.5513 C   0  0  0  0  0  0  0  0  0  0  0  0
   30.2913   40.2316   93.5853 C   0  0  0  0  0  0  0  0  0  0  0  0
   28.8610   41.8849   92.5683 C   0  0  0  0  0  0  0  0  0  0  0  0
   31.2989   40.5509   92.6714 C   0  0  0  0  0  0  0  0  0  0  0  0
   29.8563   42.1706   91.6257 C   0  0  0  0  0  0  0  0  0  0  0  0
   31.0787   41.5128   91.6871 C   0  0  0  0  0  0  0  0  0  0  0  0
   26.6638   38.9230   93.3708 N   0  0  0  0  0  0  0  0  0  0  0  0
   32.0924   41.7514   90.8238 O   0  0  0  0  0  0  0  0  0  0  0  0
   25.6746   39.4312   97.5579 P   0  0  0  0  0  0  0  0  0  0  0  0
   25.0581   40.7269   97.9140 O   0  0  0  0  0  0  0  0  0  0  0  0
   24.6792   38.6539   98.3014 O   0  0  0  0  0  0  0  0  0  0  0  0
   27.2570   39.4038   99.6212 C   0  0  0  0  0  0  0  0  0  0  0  0
   27.0923   39.3034   98.2163 O   0  0  0  0  0  0  0  0  0  0  0  0
   28.5227   38.5611   99.9413 C   0  0  1  0  0  0  0  0  0  0  0  0
   28.2021   38.0098  101.2535 O   0  0  0  0  0  0  0  0  0  0  0  0
   28.7296   37.3519   99.0221 C   0  0  1  0  0  0  0  0  0  0  0  0
   30.0439   36.8605   98.9801 O   0  0  0  0  0  0  0  0  0  0  0  0
   27.8297   36.2665   99.6343 C   0  0  1  0  0  0  0  0  0  0  0  0
   28.4040   34.9613   99.3872 O   0  0  0  0  0  0  0  0  0  0  0  0
   27.8873   36.6691  101.0690 C   0  0  2  0  0  0  0  0  0  0  0  0
   27.6167   33.2992  104.8157 N   0  0  0  0  0  0  0  0  0  0  0  0
   28.6239   33.6808  103.9772 C   0  0  0  0  0  0  0  0  0  0  0  0
   28.5900   34.5668  103.0457 N   0  0  0  0  0  0  0  0  0  0  0  0
   27.3673   35.1572  102.9590 C   0  0  0  0  0  0  0  0  0  0  0  0
   26.2678   34.8911  103.7196 C   0  0  0  0  0  0  0  0  0  0  0  0
   26.4046   33.9173  104.7414 C   0  0  0  0  0  0  0  0  0  0  0  0
   25.4439   33.5451  105.5898 N   0  0  0  0  0  0  0  0  0  0  0  0
   25.2133   35.7258  103.3778 N   0  0  0  0  0  0  0  0  0  0  0  0
   25.7026   36.4401  102.3592 C   0  0  0  0  0  0  0  0  0  0  0  0
   26.9845   36.1451  102.0546 N   0  0  0  0  0  0  0  0  0  0  0  0
   25.8504   39.0631   96.0602 O   0  0  0  0  0  0  0  0  0  0  0  0
  1  2  1  0
  1  3  1  0
  1 10  1  6
  2 34  1  0
  3  4  1  0
  4  5  2  0
  4  6  1  0
  5  7  1  0
  6  8  2  0
  7  9  2  0
  8  9  1  0
  9 11  1  0
 12 13  1  0
 12 14  2  0
 12 16  1  0
 12 34  1  0
 17 15  1  6
 15 16  1  0
 17 18  1  0
 17 19  1  0
 18 23  1  0
 19 20  1  1
 19 21  1  0
 21 22  1  1
 21 23  1  0
 23 33  1  6
 24 25  2  0
 24 29  1  0
 25 26  1  0
 26 27  2  0
 27 28  1  0
 27 33  1  0
 28 29  2  0
 28 31  1  0
 29 30  1  0
 31 32  2  0
 32 33  1  0
M  CHG  1  11  -1
M  END
$$$$
