
     RDKit          3D

 34 37  0  0  0  0  0  0  0  0999 V2000
   27.2302   39.1617   94.9943 C   0  0  2  0  0  0  0  0  0  0  0  0
   25.8561   38.8066   95.5534 C   0  0  0  0  0  0  0  0  0  0  0  0
   27.5134   40.6567   95.0103 C   0  0  0  0  0  0  0  0  0  0  0  0
   28.5128   41.1199   93.9047 C   0  0  0  0  0  0  0  0  0  0  0  0
   28.2051   42.2006   93.1037 C   0  0  0  0  0  0  0  0  0  0  0  0
   29.7195   40.4343   93.7093 C   0  0  0  0  0  0  0  0  0  0  0  0
   29.1018   42.5949   92.1219 C   0  0  0  0  0  0  0  0  0  0  0  0
   30.6113   40.8338   92.7364 C   0  0  0  0  0  0  0  0  0  0  0  0
   30.2953   41.9199   91.9325 C   0  0  0  0  0  0  0  0  0  0  0  0
   27.2969   38.6555   93.6196 N   0  0  0  0  0  0  0  0  0  0  0  0
   31.1520   42.3336   90.9589 O   0  0  0  0  0  0  0  0  0  0  0  0
   25.4183   39.1894   97.9583 P   0  0  0  0  0  0  0  0  0  0  0  0
   24.5867   38.3457   99.0505 O   0  0  0  0  0  0  0  0  0  0  0  0
   24.6287   40.4313   97.5230 O   0  0  0  0  0  0  0  0  0  0  0  0
   27.1769   39.2728   99.8879 C   0  0  0  0  0  0  0  0  0  0  0  0
   26.8436   39.5759   98.5449 O   0  0  0  0  0  0  0  0  0  0  0  0
   28.4701   38.5119   99.9805 C   0  0  1  0  0  0  0  0  0  0  0  0
   28.4948   37.7929  101.2343 O   0  0  0  0  0  0  0  0  0  0  0  0
   28.6683   37.4592   98.9094 C   0  0  1  0  0  0  0  0  0  0  0  0
   30.0619   37.1720   98.7910 O   0  0  0  0  0  0  0  0  0  0  0  0
   27.9428   36.2588   99.5133 C   0  0  1  0  0  0  0  0  0  0  0  0
   28.3446   35.0035   99.0064 O   0  0  0  0  0  0  0  0  0  0  0  0
   28.2720   36.4076  101.0011 C   0  0  2  0  0  0  0  0  0  0  0  0
   27.3545   33.5257  105.1067 N   0  0  0  0  0  0  0  0  0  0  0  0
   28.5053   33.7399  104.4472 C   0  0  0  0  0  0  0  0  0  0  0  0
   28.5781   34.5423  103.3627 N   0  0  0  0  0  0  0  0  0  0  0  0
   27.4496   35.1473  102.9389 C   0  0  0  0  0  0  0  0  0  0  0  0
   26.2293   34.9596  103.5982 C   0  0  0  0  0  0  0  0  0  0  0  0
   26.2101   34.1167  104.7215 C   0  0  0  0  0  0  0  0  0  0  0  0
   25.0058   33.8918  105.4264 N   0  0  0  0  0  0  0  0  0  0  0  0
   25.2880   35.6892  102.9281 N   0  0  0  0  0  0  0  0  0  0  0  0
   25.9011   36.3119  101.9028 C   0  0  0  0  0  0  0  0  0  0  0  0
   27.2049   35.9653  101.8998 N   0  0  0  0  0  0  0  0  0  0  0  0
   25.7797   38.2567   96.7315 O   0  0  0  0  0  0  0  0  0  0  0  0
  1  2  1  0
  1  3  1  0
  1 10  1  6
  2 34  1  0
  3  4  1  0
  4  5  2  0
  4  6  1  0
  5  7  1  0
  6  8  2  0
  7  9  2  0
  8  9  1  0
  9 11  1  0
 12 13  1  0
 12 14  2  0
 12 16  1  0
 12 34  1  0
 17 15  1  6
 15 16  1  0
 17 18  1  0
 17 19  1  0
 18 23  1  0
 19 20  1  1
 19 21  1  0
 21 22  1  6
 21 23  1  0
 23 33  1  1
 24 25  2  0
 24 29  1  0
 25 26  1  0
 26 27  2  0
 27 28  1  0
 27 33  1  0
 28 29  2  0
 28 31  1  0
 29 30  1  0
 31 32  2  0
 32 33  1  0
M  CHG  1  11  -1
M  END
$$$$
