
     RDKit          3D

 35 38  0  0  0  0  0  0  0  0999 V2000
   27.3004   38.6099   93.1398 N   0  0  0  0  0  0  0  0  0  0  0  0
   27.6491   39.0689   94.4891 C   0  0  2  0  0  0  0  0  0  0  0  0
   26.3747   39.0838   95.3114 C   0  0  0  0  0  0  0  0  0  0  0  0
   25.2506   39.2082   94.8258 O   0  0  0  0  0  0  0  0  0  0  0  0
   26.5497   38.9578   96.6718 N   0  0  0  0  0  0  0  0  0  0  0  0
   24.4105   38.7052   97.7881 O   0  0  0  0  0  0  0  0  0  0  0  0
   25.5150   40.9126   97.8634 O   0  0  0  0  0  0  0  0  0  0  0  0
   28.1497   40.5131   94.4790 C   0  0  0  0  0  0  0  0  0  0  0  0
   25.5855   39.4978   97.8251 S   0  0  2  0  0  0  0  0  0  0  0  0
   29.3078   40.7568   93.5448 C   0  0  0  0  0  0  0  0  0  0  0  0
   30.5051   40.0597   93.6870 C   0  0  0  0  0  0  0  0  0  0  0  0
   29.2025   41.6903   92.5212 C   0  0  0  0  0  0  0  0  0  0  0  0
   31.5767   40.3037   92.8425 C   0  0  0  0  0  0  0  0  0  0  0  0
   30.2517   41.9109   91.6481 C   0  0  0  0  0  0  0  0  0  0  0  0
   31.4432   41.2176   91.8071 C   0  0  0  0  0  0  0  0  0  0  0  0
   32.4545   41.4116   90.9203 O   0  0  0  0  0  0  0  0  0  0  0  0
   27.7012   39.6481   99.3453 C   0  0  0  0  0  0  0  0  0  0  0  0
   26.3798   39.0476   99.1292 O   0  0  0  0  0  0  0  0  0  0  0  0
   28.6120   38.5498   99.8408 C   0  0  1  0  0  0  0  0  0  0  0  0
   28.1259   38.0354  101.1030 O   0  0  0  0  0  0  0  0  0  0  0  0
   28.7538   37.3384   98.9116 C   0  0  1  0  0  0  0  0  0  0  0  0
   30.1201   36.9364   98.8427 O   0  0  0  0  0  0  0  0  0  0  0  0
   27.8812   36.2898   99.5914 C   0  0  1  0  0  0  0  0  0  0  0  0
   28.2634   34.9554   99.3223 O   0  0  0  0  0  0  0  0  0  0  0  0
   28.1605   36.6250  101.0468 C   0  0  2  0  0  0  0  0  0  0  0  0
   27.4330   33.3784  104.9643 N   0  0  0  0  0  0  0  0  0  0  0  0
   28.5389   33.7715  104.3199 C   0  0  0  0  0  0  0  0  0  0  0  0
   28.6566   34.6643  103.3301 N   0  0  0  0  0  0  0  0  0  0  0  0
   27.4648   35.1696  102.9895 C   0  0  0  0  0  0  0  0  0  0  0  0
   26.2382   34.8647  103.5651 C   0  0  0  0  0  0  0  0  0  0  0  0
   26.2430   33.9091  104.6010 C   0  0  0  0  0  0  0  0  0  0  0  0
   25.1303   33.4509  105.1927 N   0  0  0  0  0  0  0  0  0  0  0  0
   25.2205   35.5892  102.9640 N   0  0  0  0  0  0  0  0  0  0  0  0
   25.8401   36.2923  102.0447 C   0  0  0  0  0  0  0  0  0  0  0  0
   27.1956   36.0794  101.9961 N   0  0  0  0  0  0  0  0  0  0  0  0
  2  1  1  6
  2  3  1  0
  2  8  1  0
  3  4  1  0
  3  5  2  3
  5  9  1  0
  6  9  2  0
  7  9  2  0
  8 10  1  0
  9 18  1  1
 10 11  2  0
 10 12  1  0
 11 13  1  0
 12 14  2  0
 13 15  2  0
 14 15  1  0
 15 16  1  0
 19 17  1  6
 17 18  1  0
 19 20  1  0
 19 21  1  0
 20 25  1  0
 21 22  1  1
 21 23  1  0
 23 24  1  6
 23 25  1  0
 25 35  1  1
 26 31  2  0
 26 27  1  0
 27 28  2  0
 28 29  1  0
 29 30  2  0
 29 35  1  0
 30 31  1  0
 30 33  1  0
 31 32  1  0
 33 34  2  0
 34 35  1  0
M  END
$$$$
