
     RDKit          3D

 37 40  0  0  0  0  0  0  0  0999 V2000
   26.4616   38.9175   93.1623 N   0  0  0  0  0  0  0  0  0  0  0  0
   26.9678   39.2615   94.5041 C   0  0  2  0  0  0  0  0  0  0  0  0
   25.8306   39.2131   95.5041 C   0  0  0  0  0  0  0  0  0  0  0  0
   24.6311   39.1936   95.2569 O   0  0  0  0  0  0  0  0  0  0  0  0
   27.4819   40.7060   94.6231 C   0  0  0  0  0  0  0  0  0  0  0  0
   26.3871   31.1351  105.6933 O   0  0  0  0  0  0  0  0  0  0  0  0
   27.4926   39.5605   99.3333 C   0  0  0  0  0  0  0  0  0  0  0  0
   26.2578   38.8022   99.2372 O   0  0  0  0  0  0  0  0  0  0  0  0
   28.5755   38.6048   99.7668 C   0  0  1  0  0  0  0  0  0  0  0  0
   28.2484   38.0742  101.0728 O   0  0  0  0  0  0  0  0  0  0  0  0
   28.7989   37.3926   98.8556 C   0  0  1  0  0  0  0  0  0  0  0  0
   30.1814   37.0591   98.7427 O   0  0  0  0  0  0  0  0  0  0  0  0
   28.0484   36.2767   99.5815 C   0  0  1  0  0  0  0  0  0  0  0  0
   28.6262   34.9961   99.3897 O   0  0  0  0  0  0  0  0  0  0  0  0
   28.3063   36.6604  101.0330 C   0  0  2  0  0  0  0  0  0  0  0  0
   28.4020   33.4891  104.3597 C   0  0  0  0  0  0  0  0  0  0  0  0
   24.1522   38.3754   98.0363 O   0  0  0  0  0  0  0  0  0  0  0  0
   27.1715   33.3282  104.9897 C   0  0  0  0  0  0  0  0  0  0  0  0
   27.0155   32.3368  106.1151 C   0  0  0  0  0  0  0  0  0  0  0  0
   25.0726   40.6642   98.2121 O   0  0  0  0  0  0  0  0  0  0  0  0
   26.0868   34.0881  104.5718 C   0  0  0  0  0  0  0  0  0  0  0  0
   26.2274   39.2104   96.8243 N   0  0  0  0  0  0  0  0  0  0  0  0
   28.4614   41.1319   93.5674 C   0  0  0  0  0  0  0  0  0  0  0  0
   26.2442   35.0046  103.5370 C   0  0  0  0  0  0  0  0  0  0  0  0
   29.7406   40.5931   93.5190 C   0  0  0  0  0  0  0  0  0  0  0  0
   27.4920   35.1549  102.9169 C   0  0  0  0  0  0  0  0  0  0  0  0
   30.6724   41.0364   92.5987 C   0  0  0  0  0  0  0  0  0  0  0  0
   28.5998   34.3924  103.3041 C   0  0  0  0  0  0  0  0  0  0  0  0
   29.8456   34.4448  102.6869 N   0  0  0  0  0  0  0  0  0  0  0  0
   30.3289   42.0361   91.7027 C   0  0  0  0  0  0  0  0  0  0  0  0
   27.3104   36.1283  101.9556 N   0  0  0  0  0  0  0  0  0  0  0  0
   25.9958   36.5019  102.0393 C   0  0  0  0  0  0  0  0  0  0  0  0
   31.2416   42.5097   90.8014 O   0  0  0  0  0  0  0  0  0  0  0  0
   29.0502   42.5744   91.7227 C   0  0  0  0  0  0  0  0  0  0  0  0
   25.3170   35.8643  102.9615 N   0  0  0  0  0  0  0  0  0  0  0  0
   28.1328   42.1188   92.6504 C   0  0  0  0  0  0  0  0  0  0  0  0
   25.2590   39.2635   98.0845 S   0  0  1  0  0  0  0  0  0  0  0  0
  2  1  1  6
  2  3  1  0
  2  5  1  0
  3  4  1  0
  3 22  2  3
  5 23  1  0
  6 19  1  0
  7  8  1  0
  9  7  1  6
 37  8  1  1
  9 10  1  0
  9 11  1  0
 10 15  1  0
 11 12  1  1
 11 13  1  0
 13 14  1  1
 13 15  1  0
 15 31  1  1
 16 18  2  0
 16 28  1  0
 17 37  2  0
 18 19  1  0
 18 21  1  0
 20 37  2  0
 21 24  2  0
 22 37  1  0
 23 25  2  0
 23 36  1  0
 24 26  1  0
 24 35  1  0
 25 27  1  0
 26 28  2  0
 26 31  1  0
 27 30  2  0
 28 29  1  0
 30 33  1  0
 30 34  1  0
 31 32  1  0
 32 35  2  0
 34 36  2  0
M  END
$$$$
