
     RDKit          3D

 31 33  0  0  0  0  0  0  0  0999 V2000
   25.0820   39.7954   98.9962 P   0  0  0  0  0  0  0  0  0  0  0  0
   23.0019   39.0513  100.9693 P   0  0  0  0  0  0  0  0  0  0  0  0
   20.5083   39.9826   99.7461 P   0  0  0  0  0  0  0  0  0  0  0  0
   27.7100   39.5913   99.3401 C   0  0  0  0  0  0  0  0  0  0  0  0
   26.4117   38.9812   99.0065 O   0  0  0  0  0  0  0  0  0  0  0  0
   28.6607   38.5565   99.7667 C   0  0  1  0  0  0  0  0  0  0  0  0
   28.2765   37.9415  101.0088 O   0  0  0  0  0  0  0  0  0  0  0  0
   28.9800   37.3732   98.8221 C   0  0  1  0  0  0  0  0  0  0  0  0
   30.3690   37.0553   98.8706 O   0  0  0  0  0  0  0  0  0  0  0  0
   28.1143   36.3179   99.4878 C   0  0  1  0  0  0  0  0  0  0  0  0
   28.3103   34.9712   99.1386 O   0  0  0  0  0  0  0  0  0  0  0  0
   28.4026   36.5692  100.9731 C   0  0  2  0  0  0  0  0  0  0  0  0
   27.1809   33.5209  105.0655 N   0  0  0  0  0  0  0  0  0  0  0  0
   24.1688   39.1611   98.0364 O   0  0  0  0  0  0  0  0  0  0  0  0
   22.8064   37.6354  100.5720 O   0  0  0  0  0  0  0  0  0  0  0  0
   20.6034   39.1265   98.5390 O   0  0  0  0  0  0  0  0  0  0  0  0
   28.4600   33.7614  104.5219 C   0  0  0  0  0  0  0  0  0  0  0  0
   25.3879   41.2280   98.8041 O   0  0  0  0  0  0  0  0  0  0  0  0
   22.9870   39.1175  102.4288 O   0  0  0  0  0  0  0  0  0  0  0  0
   20.0321   41.3203   99.3503 O   0  0  0  0  0  0  0  0  0  0  0  0
   28.5876   34.6073  103.4281 N   0  0  0  0  0  0  0  0  0  0  0  0
   24.4463   39.5657  100.4629 O   0  0  0  0  0  0  0  0  0  0  0  0
   21.9701   40.1051  100.3878 O   0  0  0  0  0  0  0  0  0  0  0  0
   19.6311   39.3537  100.7530 O   0  0  0  0  0  0  0  0  0  0  0  0
   27.4562   35.1910  102.9145 C   0  0  0  0  0  0  0  0  0  0  0  0
   26.1592   34.9737  103.4405 C   0  0  0  0  0  0  0  0  0  0  0  0
   26.0075   34.0899  104.5763 C   0  0  0  0  0  0  0  0  0  0  0  0
   24.8511   33.8114  105.1590 N   0  0  0  0  0  0  0  0  0  0  0  0
   25.2180   35.6816  102.7351 N   0  0  0  0  0  0  0  0  0  0  0  0
   25.9508   36.3239  101.7849 C   0  0  0  0  0  0  0  0  0  0  0  0
   27.3066   36.0368  101.8718 N   0  0  0  0  0  0  0  0  0  0  0  0
  1  5  1  0
  1 14  1  0
  1 18  2  0
  1 22  1  0
  2 15  1  0
  2 19  2  0
  2 22  1  0
  2 23  1  0
  3 16  1  0
  3 20  1  0
  3 23  1  0
  3 24  2  0
  6  4  1  6
  4  5  1  0
  6  7  1  0
  6  8  1  0
  7 12  1  0
  8  9  1  1
  8 10  1  0
 10 11  1  6
 10 12  1  0
 12 31  1  1
 13 17  2  0
 13 27  1  0
 17 21  1  0
 21 25  2  0
 25 26  1  0
 25 31  1  0
 26 27  2  0
 26 29  1  0
 27 28  1  0
 29 30  2  0
 30 31  1  0
M  END
$$$$
