
     RDKit          3D

 31 33  0  0  0  0  0  0  0  0999 V2000
   24.7784   39.5276   98.7510 P   0  0  0  0  0  0  0  0  0  0  0  0
   23.1785   37.0242   98.8818 P   0  0  0  0  0  0  0  0  0  0  0  0
   21.3042   38.6799  100.3355 P   0  0  0  0  0  0  0  0  0  0  0  0
   27.2522   38.6922   99.2350 C   0  0  0  0  0  0  0  0  0  0  0  0
   26.1413   39.2879   99.2409 O   0  0  0  0  0  0  0  0  0  0  0  0
   28.6264   38.4498   99.6992 C   0  0  1  0  0  0  0  0  0  0  0  0
   28.4611   38.0408  101.0990 O   0  0  0  0  0  0  0  0  0  0  0  0
   28.8707   37.3084   98.7793 C   0  0  1  0  0  0  0  0  0  0  0  0
   30.1344   37.3324   98.1249 O   0  0  0  0  0  0  0  0  0  0  0  0
   28.5573   36.0597   99.6758 C   0  0  1  0  0  0  0  0  0  0  0  0
   29.5667   35.0623   99.5251 O   0  0  0  0  0  0  0  0  0  0  0  0
   28.4682   36.5782  101.1644 C   0  0  2  0  0  0  0  0  0  0  0  0
   26.9915   33.3758  104.8731 N   0  0  0  0  0  0  0  0  0  0  0  0
   24.7899   40.5201   99.8228 O   0  0  0  0  0  0  0  0  0  0  0  0
   23.6523   36.7583   97.5375 O   0  0  0  0  0  0  0  0  0  0  0  0
   20.4993   39.8718   99.9644 O   0  0  0  0  0  0  0  0  0  0  0  0
   28.2019   33.5444  104.2683 C   0  0  0  0  0  0  0  0  0  0  0  0
   24.9925   39.9065   97.3473 O   0  0  0  0  0  0  0  0  0  0  0  0
   23.4586   36.1239  100.0007 O   0  0  0  0  0  0  0  0  0  0  0  0
   22.3064   38.8741  101.4171 O   0  0  0  0  0  0  0  0  0  0  0  0
   28.4851   34.4246  103.2877 N   0  0  0  0  0  0  0  0  0  0  0  0
   24.4866   38.0338   99.0634 O   0  0  0  0  0  0  0  0  0  0  0  0
   22.1699   38.2157   99.0934 O   0  0  0  0  0  0  0  0  0  0  0  0
   20.3966   37.5570  100.6209 O   0  0  0  0  0  0  0  0  0  0  0  0
   27.3448   35.2145  102.9306 C   0  0  0  0  0  0  0  0  0  0  0  0
   26.0782   35.1338  103.4687 C   0  0  0  0  0  0  0  0  0  0  0  0
   25.9056   34.1737  104.4830 C   0  0  0  0  0  0  0  0  0  0  0  0
   24.7222   34.0153  105.0527 N   0  0  0  0  0  0  0  0  0  0  0  0
   25.2179   36.0483  102.8895 N   0  0  0  0  0  0  0  0  0  0  0  0
   25.9702   36.6418  102.0201 C   0  0  0  0  0  0  0  0  0  0  0  0
   27.2885   36.1756  101.9885 N   0  0  0  0  0  0  0  0  0  0  0  0
  1  5  1  0
  1 14  1  0
  1 18  2  0
  1 22  1  0
  2 15  1  0
  2 19  2  0
  2 22  1  0
  2 23  1  0
  3 16  1  0
  3 20  1  0
  3 23  1  0
  3 24  2  0
  6  4  1  6
  4  5  1  0
  6  7  1  0
  6  8  1  0
  7 12  1  0
  8  9  1  1
  8 10  1  0
 10 11  1  1
 10 12  1  0
 12 31  1  6
 13 17  2  0
 13 27  1  0
 17 21  1  0
 21 25  2  0
 25 26  1  0
 25 31  1  0
 26 27  2  0
 26 29  1  0
 27 28  1  0
 29 30  2  0
 30 31  1  0
M  END
$$$$
