
     RDKit          3D

 35 38  0  0  0  0  0  0  0  0999 V2000
   28.0318   38.7764   92.7598 N   0  0  0  0  0  0  0  0  0  0  0  0
   28.4249   39.0364   94.1517 C   0  0  2  0  0  0  0  0  0  0  0  0
   27.1861   38.9458   95.0436 C   0  0  0  0  0  0  0  0  0  0  0  0
   26.1132   38.5552   94.5883 O   0  0  0  0  0  0  0  0  0  0  0  0
   27.3783   39.3321   96.3033 N   0  0  0  0  0  0  0  0  0  0  0  0
   25.6683   37.9223   97.5929 O   0  0  0  0  0  0  0  0  0  0  0  0
   25.0829   40.2370   97.0209 O   0  0  0  0  0  0  0  0  0  0  0  0
   29.0259   40.4393   94.2781 C   0  0  0  0  0  0  0  0  0  0  0  0
   26.1955   39.3170   97.4263 S   0  0  2  0  0  0  0  0  0  0  0  0
   30.2944   40.6355   93.4444 C   0  0  0  0  0  0  0  0  0  0  0  0
   30.2693   41.4783   92.3370 C   0  0  0  0  0  0  0  0  0  0  0  0
   31.4879   40.0252   93.8224 C   0  0  0  0  0  0  0  0  0  0  0  0
   31.4340   41.7146   91.6129 C   0  0  0  0  0  0  0  0  0  0  0  0
   32.6528   40.2595   93.0977 C   0  0  0  0  0  0  0  0  0  0  0  0
   32.6270   41.1088   91.9932 C   0  0  0  0  0  0  0  0  0  0  0  0
   33.7729   41.3663   91.3078 O   0  0  0  0  0  0  0  0  0  0  0  0
   27.0256   38.9327   99.8104 C   0  0  0  0  0  0  0  0  0  0  0  0
   26.7679   39.8164   98.7186 O   0  0  0  0  0  0  0  0  0  0  0  0
   28.4811   38.4585   99.8482 C   0  0  1  0  0  0  0  0  0  0  0  0
   28.7185   37.8157  101.1115 O   0  0  0  0  0  0  0  0  0  0  0  0
   28.8005   37.3758   98.8167 C   0  0  1  0  0  0  0  0  0  0  0  0
   30.2136   37.1545   98.7680 O   0  0  0  0  0  0  0  0  0  0  0  0
   28.0946   36.1899   99.4764 C   0  0  1  0  0  0  0  0  0  0  0  0
   28.6745   34.9523   99.0575 O   0  0  0  0  0  0  0  0  0  0  0  0
   28.4389   36.4121  100.9506 C   0  0  2  0  0  0  0  0  0  0  0  0
   27.1349   33.6780  105.1102 N   0  0  0  0  0  0  0  0  0  0  0  0
   28.3381   33.8779  104.5987 C   0  0  0  0  0  0  0  0  0  0  0  0
   28.5018   34.6194  103.5155 N   0  0  0  0  0  0  0  0  0  0  0  0
   27.4543   35.1872  102.8991 C   0  0  0  0  0  0  0  0  0  0  0  0
   26.1774   34.9962  103.4088 C   0  0  0  0  0  0  0  0  0  0  0  0
   26.0416   34.2168  104.5504 C   0  0  0  0  0  0  0  0  0  0  0  0
   24.8430   34.0258  105.0933 N   0  0  0  0  0  0  0  0  0  0  0  0
   25.3307   35.6595  102.6266 N   0  0  0  0  0  0  0  0  0  0  0  0
   26.0386   36.2425  101.6635 C   0  0  0  0  0  0  0  0  0  0  0  0
   27.3296   35.9587  101.8222 N   0  0  0  0  0  0  0  0  0  0  0  0
  2  1  1  6
  2  3  1  0
  2  8  1  0
  3  4  1  0
  3  5  2  3
  5  9  1  0
  6  9  2  0
  7  9  2  0
  8 10  1  0
  9 18  1  1
 10 11  2  0
 10 12  1  0
 11 13  1  0
 12 14  2  0
 13 15  2  0
 14 15  1  0
 15 16  1  0
 19 17  1  1
 17 18  1  0
 19 20  1  0
 19 21  1  0
 20 25  1  0
 21 22  1  1
 21 23  1  0
 23 24  1  6
 23 25  1  0
 25 35  1  1
 26 31  2  0
 26 27  1  0
 27 28  2  0
 28 29  1  0
 29 30  2  0
 29 35  1  0
 30 31  1  0
 30 33  1  0
 31 32  1  0
 33 34  2  0
 34 35  1  0
M  END
$$$$
