
     RDKit          3D

 35 38  0  0  0  0  0  0  0  0999 V2000
   27.0133   38.5484   92.9885 N   0  0  0  0  0  0  0  0  0  0  0  0
   27.3731   39.2722   94.2458 C   0  0  2  0  0  0  0  0  0  0  0  0
   26.3716   38.9758   95.3366 C   0  0  0  0  0  0  0  0  0  0  0  0
   25.4908   38.1527   95.1547 O   0  0  0  0  0  0  0  0  0  0  0  0
   27.4503   40.7772   93.9776 C   0  0  0  0  0  0  0  0  0  0  0  0
   28.5803   41.1361   93.0400 C   0  0  0  0  0  0  0  0  0  0  0  0
   29.8846   40.7140   93.3070 C   0  0  0  0  0  0  0  0  0  0  0  0
   28.3206   41.8971   91.8963 C   0  0  0  0  0  0  0  0  0  0  0  0
   30.9199   41.0572   92.4438 C   0  0  0  0  0  0  0  0  0  0  0  0
   29.3569   42.2444   91.0292 C   0  0  0  0  0  0  0  0  0  0  0  0
   30.6589   41.8191   91.3041 C   0  0  0  0  0  0  0  0  0  0  0  0
   31.6579   42.1313   90.4847 O   0  0  0  0  0  0  0  0  0  0  0  0
   25.5711   39.5950   97.8476 P   0  0  0  0  0  0  0  0  0  0  0  0
   24.4177   38.6467   97.7369 O   0  0  0  0  0  0  0  0  0  0  0  0
   25.2562   41.0132   98.2337 O   0  0  0  0  0  0  0  0  0  0  0  0
   26.5309   39.6594   96.4736 N   0  0  0  0  0  0  0  0  0  0  0  0
   27.7571   39.5693   99.3373 C   0  0  0  0  0  0  0  0  0  0  0  0
   26.5077   38.9726   98.9992 O   0  0  0  0  0  0  0  0  0  0  0  0
   28.7544   38.4886   99.7379 C   0  0  1  0  0  0  0  0  0  0  0  0
   28.5414   38.0828  101.0986 O   0  0  0  0  0  0  0  0  0  0  0  0
   28.6501   37.2726   98.8329 C   0  0  1  0  0  0  0  0  0  0  0  0
   29.9703   37.0547   98.3605 O   0  0  0  0  0  0  0  0  0  0  0  0
   28.2694   36.1202   99.7330 C   0  0  1  0  0  0  0  0  0  0  0  0
   28.9785   34.9101   99.5337 O   0  0  0  0  0  0  0  0  0  0  0  0
   28.3308   36.6704  101.1550 C   0  0  2  0  0  0  0  0  0  0  0  0
   27.1784   33.4448  104.9077 N   0  0  0  0  0  0  0  0  0  0  0  0
   28.5129   33.7346  104.3887 C   0  0  0  0  0  0  0  0  0  0  0  0
   28.4679   34.7185  103.3221 N   0  0  0  0  0  0  0  0  0  0  0  0
   27.2974   35.2687  102.8984 C   0  0  0  0  0  0  0  0  0  0  0  0
   26.0810   34.9572  103.4214 C   0  0  0  0  0  0  0  0  0  0  0  0
   26.0212   33.9700  104.5138 C   0  0  0  0  0  0  0  0  0  0  0  0
   24.8702   33.6286  105.0755 N   0  0  0  0  0  0  0  0  0  0  0  0
   25.1843   35.7031  102.7466 N   0  0  0  0  0  0  0  0  0  0  0  0
   25.8719   36.4377  101.8286 C   0  0  0  0  0  0  0  0  0  0  0  0
   27.1874   36.1681  101.9377 N   0  0  0  0  0  0  0  0  0  0  0  0
  2  1  1  6
  2  3  1  0
  2  5  1  0
  3  4  1  0
  3 16  2  3
  5  6  1  0
  6  7  2  0
  6  8  1  0
  7  9  1  0
  8 10  2  0
  9 11  2  0
 10 11  1  0
 11 12  1  0
 13 14  1  0
 13 15  2  0
 13 18  1  0
 13 16  1  0
 19 17  1  6
 17 18  1  0
 19 20  1  0
 19 21  1  0
 20 25  1  0
 21 22  1  1
 21 23  1  0
 23 24  1  1
 23 25  1  0
 25 35  1  6
 26 27  2  0
 26 31  1  0
 27 28  1  0
 28 29  2  0
 29 30  1  0
 29 35  1  0
 30 31  2  0
 30 33  1  0
 31 32  1  0
 33 34  2  0
 34 35  1  0
M  END
$$$$
