
     RDKit          3D

 34 37  0  0  0  0  0  0  0  0999 V2000
   28.1885   38.9089   94.2834 C   0  0  2  0  0  0  0  0  0  0  0  0
   27.5690   38.3966   95.5549 C   0  0  0  0  0  0  0  0  0  0  0  0
   28.5671   40.3854   94.3449 C   0  0  0  0  0  0  0  0  0  0  0  0
   29.6101   40.6945   93.4520 C   0  0  0  0  0  0  0  0  0  0  0  0
   30.8268   40.0431   93.5847 C   0  0  0  0  0  0  0  0  0  0  0  0
   29.4552   41.6544   92.4288 C   0  0  0  0  0  0  0  0  0  0  0  0
   31.8900   40.3448   92.7296 C   0  0  0  0  0  0  0  0  0  0  0  0
   30.5081   41.9214   91.5453 C   0  0  0  0  0  0  0  0  0  0  0  0
   31.7283   41.2762   91.7055 C   0  0  0  0  0  0  0  0  0  0  0  0
   27.2300   38.6980   93.1720 N   0  0  0  0  0  0  0  0  0  0  0  0
   32.7947   41.4987   90.9036 O   0  0  0  0  0  0  0  0  0  0  0  0
   25.9652   39.3172   97.2690 P   0  0  0  0  0  0  0  0  0  0  0  0
   25.3181   40.6172   97.5462 O   0  0  0  0  0  0  0  0  0  0  0  0
   24.9285   38.5529   97.9683 O   0  0  0  0  0  0  0  0  0  0  0  0
   27.4092   39.3624   99.4311 C   0  0  0  0  0  0  0  0  0  0  0  0
   27.3376   39.2204   98.0220 O   0  0  0  0  0  0  0  0  0  0  0  0
   28.6569   38.5400   99.8575 C   0  0  1  0  0  0  0  0  0  0  0  0
   28.2547   38.0238  101.1615 O   0  0  0  0  0  0  0  0  0  0  0  0
   28.9316   37.3069   98.9894 C   0  0  1  0  0  0  0  0  0  0  0  0
   30.2491   36.8257   99.0476 O   0  0  0  0  0  0  0  0  0  0  0  0
   28.0008   36.2317   99.5729 C   0  0  1  0  0  0  0  0  0  0  0  0
   28.5988   34.9249   99.4019 O   0  0  0  0  0  0  0  0  0  0  0  0
   27.9616   36.6757  100.9959 C   0  0  2  0  0  0  0  0  0  0  0  0
   27.4687   33.4122  104.8135 N   0  0  0  0  0  0  0  0  0  0  0  0
   28.5260   33.7782  104.0317 C   0  0  0  0  0  0  0  0  0  0  0  0
   28.5473   34.6369  103.0747 N   0  0  0  0  0  0  0  0  0  0  0  0
   27.3290   35.2141  102.8912 C   0  0  0  0  0  0  0  0  0  0  0  0
   26.1838   34.9604  103.5858 C   0  0  0  0  0  0  0  0  0  0  0  0
   26.2599   34.0174  104.6422 C   0  0  0  0  0  0  0  0  0  0  0  0
   25.2483   33.6615  105.4366 N   0  0  0  0  0  0  0  0  0  0  0  0
   25.1485   35.7760  103.1517 N   0  0  0  0  0  0  0  0  0  0  0  0
   25.6987   36.4649  102.1469 C   0  0  0  0  0  0  0  0  0  0  0  0
   26.9997   36.1724  101.9354 N   0  0  0  0  0  0  0  0  0  0  0  0
   26.2413   38.9079   95.7974 O   0  0  0  0  0  0  0  0  0  0  0  0
  1  2  1  0
  1  3  1  0
  1 10  1  6
  2 34  1  0
  3  4  1  0
  4  5  2  0
  4  6  1  0
  5  7  1  0
  6  8  2  0
  7  9  2  0
  8  9  1  0
  9 11  1  0
 12 13  1  0
 12 14  2  0
 12 16  1  0
 12 34  1  0
 17 15  1  6
 15 16  1  0
 17 18  1  0
 17 19  1  0
 18 23  1  0
 19 20  1  1
 19 21  1  0
 21 22  1  1
 21 23  1  0
 23 33  1  6
 24 25  2  0
 24 29  1  0
 25 26  1  0
 26 27  2  0
 27 28  1  0
 27 33  1  0
 28 29  2  0
 28 31  1  0
 29 30  1  0
 31 32  2  0
 32 33  1  0
M  CHG  1  11  -1
M  END
$$$$
