
     RDKit          3D

 35 38  0  0  0  0  0  0  0  0999 V2000
   27.7644   38.4658   93.0248 N   0  0  0  0  0  0  0  0  0  0  0  0
   28.0485   38.9503   94.3803 C   0  0  2  0  0  0  0  0  0  0  0  0
   26.7354   38.9858   95.1386 C   0  0  0  0  0  0  0  0  0  0  0  0
   25.6370   39.1044   94.5960 O   0  0  0  0  0  0  0  0  0  0  0  0
   26.8430   38.8863   96.5082 N   0  0  0  0  0  0  0  0  0  0  0  0
   24.6506   38.6631   97.5228 O   0  0  0  0  0  0  0  0  0  0  0  0
   25.7596   40.8678   97.6089 O   0  0  0  0  0  0  0  0  0  0  0  0
   28.5553   40.3924   94.3665 C   0  0  0  0  0  0  0  0  0  0  0  0
   25.8257   39.4523   97.6020 S   0  0  2  0  0  0  0  0  0  0  0  0
   29.7588   40.6135   93.4856 C   0  0  0  0  0  0  0  0  0  0  0  0
   30.9447   39.9153   93.7001 C   0  0  0  0  0  0  0  0  0  0  0  0
   29.7079   41.5269   92.4400 C   0  0  0  0  0  0  0  0  0  0  0  0
   32.0575   40.1388   92.9046 C   0  0  0  0  0  0  0  0  0  0  0  0
   30.7996   41.7265   91.6152 C   0  0  0  0  0  0  0  0  0  0  0  0
   31.9788   41.0325   91.8461 C   0  0  0  0  0  0  0  0  0  0  0  0
   33.0332   41.2054   91.0063 O   0  0  0  0  0  0  0  0  0  0  0  0
   27.8651   39.6255   99.2209 C   0  0  0  0  0  0  0  0  0  0  0  0
   26.5532   39.0253   98.9521 O   0  0  0  0  0  0  0  0  0  0  0  0
   28.7457   38.5342   99.7819 C   0  0  1  0  0  0  0  0  0  0  0  0
   28.1961   38.0465  101.0286 O   0  0  0  0  0  0  0  0  0  0  0  0
   28.9276   37.3041   98.8848 C   0  0  1  0  0  0  0  0  0  0  0  0
   30.2939   36.8962   98.8910 O   0  0  0  0  0  0  0  0  0  0  0  0
   28.0181   36.2722   99.5415 C   0  0  1  0  0  0  0  0  0  0  0  0
   28.4072   34.9314   99.3177 O   0  0  0  0  0  0  0  0  0  0  0  0
   28.2272   36.6352  101.0019 C   0  0  2  0  0  0  0  0  0  0  0  0
   27.2944   33.4694  104.9420 N   0  0  0  0  0  0  0  0  0  0  0  0
   28.4323   33.8460  104.3451 C   0  0  0  0  0  0  0  0  0  0  0  0
   28.6023   34.7185  103.3449 N   0  0  0  0  0  0  0  0  0  0  0  0
   27.4308   35.2210  102.9363 C   0  0  0  0  0  0  0  0  0  0  0  0
   26.1761   34.9317  103.4570 C   0  0  0  0  0  0  0  0  0  0  0  0
   26.1259   33.9969  104.5104 C   0  0  0  0  0  0  0  0  0  0  0  0
   24.9837   33.5543  105.0557 N   0  0  0  0  0  0  0  0  0  0  0  0
   25.1923   35.6476  102.7925 N   0  0  0  0  0  0  0  0  0  0  0  0
   25.8592   36.3303  101.8911 C   0  0  0  0  0  0  0  0  0  0  0  0
   27.2145   36.1118  101.9132 N   0  0  0  0  0  0  0  0  0  0  0  0
  2  1  1  6
  2  3  1  0
  2  8  1  0
  3  4  1  0
  3  5  2  3
  5  9  1  0
  6  9  2  0
  7  9  2  0
  8 10  1  0
  9 18  1  1
 10 11  2  0
 10 12  1  0
 11 13  1  0
 12 14  2  0
 13 15  2  0
 14 15  1  0
 15 16  1  0
 19 17  1  6
 17 18  1  0
 19 20  1  0
 19 21  1  0
 20 25  1  0
 21 22  1  1
 21 23  1  0
 23 24  1  1
 23 25  1  0
 25 35  1  1
 26 31  2  0
 26 27  1  0
 27 28  2  0
 28 29  1  0
 29 30  2  0
 29 35  1  0
 30 31  1  0
 30 33  1  0
 31 32  1  0
 33 34  2  0
 34 35  1  0
M  END
$$$$
