
     RDKit          3D

 31 33  0  0  0  0  0  0  0  0999 V2000
   25.1232   40.5430   99.6727 P   0  0  0  0  0  0  0  0  0  0  0  0
   23.0113   39.4721  101.4765 P   0  0  0  0  0  0  0  0  0  0  0  0
   20.5388   40.6282  100.4120 P   0  0  0  0  0  0  0  0  0  0  0  0
   27.7560   40.3676  100.2159 C   0  0  0  0  0  0  0  0  0  0  0  0
   26.5257   39.8556   99.5821 O   0  0  0  0  0  0  0  0  0  0  0  0
   28.6948   39.2571  100.4294 C   0  0  1  0  0  0  0  0  0  0  0  0
   28.3070   38.3954  101.5200 O   0  0  0  0  0  0  0  0  0  0  0  0
   29.0227   38.2892   99.2695 C   0  0  1  0  0  0  0  0  0  0  0  0
   30.4244   38.0170   99.2279 O   0  0  0  0  0  0  0  0  0  0  0  0
   28.1771   37.1030   99.7168 C   0  0  1  0  0  0  0  0  0  0  0  0
   28.3539   35.8577   99.0826 O   0  0  0  0  0  0  0  0  0  0  0  0
   28.4482   37.0490  101.2289 C   0  0  2  0  0  0  0  0  0  0  0  0
   27.1504   33.2898  104.7086 N   0  0  0  0  0  0  0  0  0  0  0  0
   24.2750   39.9599   98.6143 O   0  0  0  0  0  0  0  0  0  0  0  0
   22.8186   38.1445  100.8488 O   0  0  0  0  0  0  0  0  0  0  0  0
   20.6303   40.0439   99.0483 O   0  0  0  0  0  0  0  0  0  0  0  0
   28.4354   33.6053  104.2144 C   0  0  0  0  0  0  0  0  0  0  0  0
   25.3004   41.9918   99.6846 O   0  0  0  0  0  0  0  0  0  0  0  0
   22.9499   39.2903  102.9352 O   0  0  0  0  0  0  0  0  0  0  0  0
   20.0669   42.0178  100.2807 O   0  0  0  0  0  0  0  0  0  0  0  0
   28.5836   34.6273  103.2877 N   0  0  0  0  0  0  0  0  0  0  0  0
   24.4664   40.0485  101.0740 O   0  0  0  0  0  0  0  0  0  0  0  0
   21.9930   40.6090  101.0831 O   0  0  0  0  0  0  0  0  0  0  0  0
   19.6355   39.8180  101.2785 O   0  0  0  0  0  0  0  0  0  0  0  0
   27.4618   35.3186  102.8824 C   0  0  0  0  0  0  0  0  0  0  0  0
   26.1562   35.0273  103.3585 C   0  0  0  0  0  0  0  0  0  0  0  0
   25.9841   33.9550  104.3250 C   0  0  0  0  0  0  0  0  0  0  0  0
   24.8190   33.5913  104.8502 N   0  0  0  0  0  0  0  0  0  0  0  0
   25.2303   35.8613  102.7808 N   0  0  0  0  0  0  0  0  0  0  0  0
   25.9787   36.6609  101.9659 C   0  0  0  0  0  0  0  0  0  0  0  0
   27.3335   36.3515  102.0076 N   0  0  0  0  0  0  0  0  0  0  0  0
  1  5  1  0
  1 14  1  0
  1 18  2  0
  1 22  1  0
  2 15  1  0
  2 19  2  0
  2 22  1  0
  2 23  1  0
  3 16  1  0
  3 20  1  0
  3 23  1  0
  3 24  2  0
  6  4  1  6
  4  5  1  0
  6  7  1  0
  6  8  1  0
  7 12  1  0
  8  9  1  1
  8 10  1  0
 10 11  1  6
 10 12  1  0
 12 31  1  1
 13 17  2  0
 13 27  1  0
 17 21  1  0
 21 25  2  0
 25 26  1  0
 25 31  1  0
 26 27  2  0
 26 29  1  0
 27 28  1  0
 29 30  2  0
 30 31  1  0
M  END
$$$$
