
     RDKit          3D

 35 38  0  0  0  0  0  0  0  0999 V2000
   27.7833   41.2452   93.8975 N   0  0  0  0  0  0  0  0  0  0  0  0
   28.2134   41.1621   95.3003 C   0  0  2  0  0  0  0  0  0  0  0  0
   26.9970   40.8594   96.1762 C   0  0  0  0  0  0  0  0  0  0  0  0
   25.9105   40.5901   95.6685 O   0  0  0  0  0  0  0  0  0  0  0  0
   27.2236   40.9308   97.4864 N   0  0  0  0  0  0  0  0  0  0  0  0
   25.5379   39.2519   98.4427 O   0  0  0  0  0  0  0  0  0  0  0  0
   24.9530   41.6363   98.4607 O   0  0  0  0  0  0  0  0  0  0  0  0
   28.8264   42.4931   95.7451 C   0  0  0  0  0  0  0  0  0  0  0  0
   26.0697   40.6456   98.6033 S   0  0  2  0  0  0  0  0  0  0  0  0
   30.0745   42.8843   94.9503 C   0  0  0  0  0  0  0  0  0  0  0  0
   30.0267   43.9691   94.0796 C   0  0  0  0  0  0  0  0  0  0  0  0
   31.2732   42.2008   95.1388 C   0  0  0  0  0  0  0  0  0  0  0  0
   31.1741   44.3728   93.4034 C   0  0  0  0  0  0  0  0  0  0  0  0
   32.4208   42.6026   94.4615 C   0  0  0  0  0  0  0  0  0  0  0  0
   32.3725   43.6931   93.5952 C   0  0  0  0  0  0  0  0  0  0  0  0
   33.5022   44.1080   92.9622 O   0  0  0  0  0  0  0  0  0  0  0  0
   26.9575   39.6980  100.8020 C   0  0  0  0  0  0  0  0  0  0  0  0
   26.6779   40.8188   99.9624 O   0  0  0  0  0  0  0  0  0  0  0  0
   28.4105   39.2286  100.6864 C   0  0  1  0  0  0  0  0  0  0  0  0
   28.6757   38.3002  101.7509 O   0  0  0  0  0  0  0  0  0  0  0  0
   28.6966   38.4263   99.4165 C   0  0  1  0  0  0  0  0  0  0  0  0
   30.1066   38.2231   99.2789 O   0  0  0  0  0  0  0  0  0  0  0  0
   28.0001   37.1165   99.7893 C   0  0  1  0  0  0  0  0  0  0  0  0
   28.5612   36.0162   99.0696 O   0  0  0  0  0  0  0  0  0  0  0  0
   28.3832   36.9768  101.2641 C   0  0  2  0  0  0  0  0  0  0  0  0
   27.1676   33.3212  104.6754 N   0  0  0  0  0  0  0  0  0  0  0  0
   28.3587   33.6383  104.1957 C   0  0  0  0  0  0  0  0  0  0  0  0
   28.4996   34.6189  103.3192 N   0  0  0  0  0  0  0  0  0  0  0  0
   27.4405   35.3186  102.8853 C   0  0  0  0  0  0  0  0  0  0  0  0
   26.1757   35.0106  103.3672 C   0  0  0  0  0  0  0  0  0  0  0  0
   26.0640   33.9790  104.2906 C   0  0  0  0  0  0  0  0  0  0  0  0
   24.8783   33.6630  104.8027 N   0  0  0  0  0  0  0  0  0  0  0  0
   25.3137   35.8429  102.7903 N   0  0  0  0  0  0  0  0  0  0  0  0
   26.0006   36.6407  101.9778 C   0  0  0  0  0  0  0  0  0  0  0  0
   27.2934   36.3269  102.0296 N   0  0  0  0  0  0  0  0  0  0  0  0
  2  1  1  6
  2  3  1  0
  2  8  1  0
  3  4  1  0
  3  5  2  3
  5  9  1  0
  6  9  2  0
  7  9  2  0
  8 10  1  0
  9 18  1  1
 10 11  2  0
 10 12  1  0
 11 13  1  0
 12 14  2  0
 13 15  2  0
 14 15  1  0
 15 16  1  0
 19 17  1  6
 17 18  1  0
 19 20  1  0
 19 21  1  0
 20 25  1  0
 21 22  1  1
 21 23  1  0
 23 24  1  6
 23 25  1  0
 25 35  1  1
 26 31  2  0
 26 27  1  0
 27 28  2  0
 28 29  1  0
 29 30  2  0
 29 35  1  0
 30 31  1  0
 30 33  1  0
 31 32  1  0
 33 34  2  0
 34 35  1  0
M  END
$$$$
