
     RDKit          3D

 35 38  0  0  0  0  0  0  0  0999 V2000
   26.8994   40.0111   93.8619 N   0  0  0  0  0  0  0  0  0  0  0  0
   27.2661   40.4089   95.2289 C   0  0  2  0  0  0  0  0  0  0  0  0
   26.1324   40.0921   96.2095 C   0  0  0  0  0  0  0  0  0  0  0  0
   24.9744   40.0204   95.8016 O   0  0  0  0  0  0  0  0  0  0  0  0
   26.4684   39.9221   97.4867 N   0  0  0  0  0  0  0  0  0  0  0  0
   24.1878   39.0916   98.6766 O   0  0  0  0  0  0  0  0  0  0  0  0
   24.8522   41.5931   98.7345 O   0  0  0  0  0  0  0  0  0  0  0  0
   27.5216   41.9157   95.2897 C   0  0  0  0  0  0  0  0  0  0  0  0
   25.2307   40.1563   98.5277 S   0  0  2  0  0  0  0  0  0  0  0  0
   28.5826   42.3978   94.2963 C   0  0  0  0  0  0  0  0  0  0  0  0
   28.2864   43.4871   93.4844 C   0  0  0  0  0  0  0  0  0  0  0  0
   29.8463   41.8182   94.2531 C   0  0  0  0  0  0  0  0  0  0  0  0
   29.2570   44.0084   92.6346 C   0  0  0  0  0  0  0  0  0  0  0  0
   30.8187   42.3417   93.4083 C   0  0  0  0  0  0  0  0  0  0  0  0
   30.5237   43.4371   92.6025 C   0  0  0  0  0  0  0  0  0  0  0  0
   31.4728   43.9731   91.7885 O   0  0  0  0  0  0  0  0  0  0  0  0
   26.6150   38.7302   99.9224 C   0  0  0  0  0  0  0  0  0  0  0  0
   25.9493   39.9744   99.7457 O   0  0  0  0  0  0  0  0  0  0  0  0
   28.1254   38.9101  100.0698 C   0  0  1  0  0  0  0  0  0  0  0  0
   28.4632   38.3502  101.3483 O   0  0  0  0  0  0  0  0  0  0  0  0
   28.6898   37.8931   99.0780 C   0  0  1  0  0  0  0  0  0  0  0  0
   30.1180   37.8698   99.1470 O   0  0  0  0  0  0  0  0  0  0  0  0
   28.0656   36.6571   99.7238 C   0  0  1  0  0  0  0  0  0  0  0  0
   28.7212   35.4671   99.2788 O   0  0  0  0  0  0  0  0  0  0  0  0
   28.3720   36.9222  101.2004 C   0  0  2  0  0  0  0  0  0  0  0  0
   27.1626   33.3147  104.6681 N   0  0  0  0  0  0  0  0  0  0  0  0
   28.3494   33.6421  104.1871 C   0  0  0  0  0  0  0  0  0  0  0  0
   28.5038   34.6253  103.3177 N   0  0  0  0  0  0  0  0  0  0  0  0
   27.4431   35.3294  102.8946 C   0  0  0  0  0  0  0  0  0  0  0  0
   26.1821   35.0183  103.3822 C   0  0  0  0  0  0  0  0  0  0  0  0
   26.0594   33.9760  104.2927 C   0  0  0  0  0  0  0  0  0  0  0  0
   24.8679   33.6295  104.7722 N   0  0  0  0  0  0  0  0  0  0  0  0
   25.3157   35.8392  102.7935 N   0  0  0  0  0  0  0  0  0  0  0  0
   26.0010   36.6295  101.9713 C   0  0  0  0  0  0  0  0  0  0  0  0
   27.2969   36.3224  102.0238 N   0  0  0  0  0  0  0  0  0  0  0  0
  2  1  1  6
  2  3  1  0
  2  8  1  0
  3  4  1  0
  3  5  2  3
  5  9  1  0
  6  9  2  0
  7  9  2  0
  8 10  1  0
  9 18  1  1
 10 11  2  0
 10 12  1  0
 11 13  1  0
 12 14  2  0
 13 15  2  0
 14 15  1  0
 15 16  1  0
 19 17  1  1
 17 18  1  0
 19 20  1  0
 19 21  1  0
 20 25  1  0
 21 22  1  1
 21 23  1  0
 23 24  1  6
 23 25  1  0
 25 35  1  1
 26 31  2  0
 26 27  1  0
 27 28  2  0
 28 29  1  0
 29 30  2  0
 29 35  1  0
 30 31  1  0
 30 33  1  0
 31 32  1  0
 33 34  2  0
 34 35  1  0
M  END
$$$$
