
     RDKit          3D

 34 37  0  0  0  0  0  0  0  0999 V2000
   30.0890   39.6417   95.0354 C   0  0  2  0  0  0  0  0  0  0  0  0
   29.2156   39.0455   96.1054 C   0  0  0  0  0  0  0  0  0  0  0  0
   30.4706   41.0942   95.3032 C   0  0  0  0  0  0  0  0  0  0  0  0
   31.6781   41.4420   94.6696 C   0  0  0  0  0  0  0  0  0  0  0  0
   32.8319   40.7413   94.9859 C   0  0  0  0  0  0  0  0  0  0  0  0
   31.7499   42.4891   93.7258 C   0  0  0  0  0  0  0  0  0  0  0  0
   34.0515   41.0777   94.3927 C   0  0  0  0  0  0  0  0  0  0  0  0
   32.9647   42.7939   93.0997 C   0  0  0  0  0  0  0  0  0  0  0  0
   34.1163   42.0968   93.4441 C   0  0  0  0  0  0  0  0  0  0  0  0
   29.3734   39.5572   93.7396 N   0  0  0  0  0  0  0  0  0  0  0  0
   35.3270   42.3499   92.8963 O   0  0  0  0  0  0  0  0  0  0  0  0
   27.3115   39.8722   97.5367 P   0  0  0  0  0  0  0  0  0  0  0  0
   26.6422   41.1654   97.7926 O   0  0  0  0  0  0  0  0  0  0  0  0
   26.1422   39.0873   97.9420 O   0  0  0  0  0  0  0  0  0  0  0  0
   28.2860   39.6870   99.9404 C   0  0  0  0  0  0  0  0  0  0  0  0
   28.5003   39.6664   98.5388 O   0  0  0  0  0  0  0  0  0  0  0  0
   29.4075   38.7903  100.5343 C   0  0  1  0  0  0  0  0  0  0  0  0
   28.7403   38.1802  101.6793 O   0  0  0  0  0  0  0  0  0  0  0  0
   29.8335   37.6259   99.6329 C   0  0  1  0  0  0  0  0  0  0  0  0
   31.1038   37.0975   99.9120 O   0  0  0  0  0  0  0  0  0  0  0  0
   28.7865   36.5374   99.9190 C   0  0  1  0  0  0  0  0  0  0  0  0
   29.3860   35.2303   99.7560 O   0  0  0  0  0  0  0  0  0  0  0  0
   28.4657   36.8614  101.3387 C   0  0  2  0  0  0  0  0  0  0  0  0
   27.1546   33.3071  104.6727 N   0  0  0  0  0  0  0  0  0  0  0  0
   28.3546   33.7017  104.1556 C   0  0  0  0  0  0  0  0  0  0  0  0
   28.5838   34.6367  103.3028 N   0  0  0  0  0  0  0  0  0  0  0  0
   27.4376   35.2678  102.9300 C   0  0  0  0  0  0  0  0  0  0  0  0
   26.1712   34.9954  103.3545 C   0  0  0  0  0  0  0  0  0  0  0  0
   26.0157   33.9649  104.3163 C   0  0  0  0  0  0  0  0  0  0  0  0
   24.8581   33.5777  104.8558 N   0  0  0  0  0  0  0  0  0  0  0  0
   25.2588   35.8788  102.7953 N   0  0  0  0  0  0  0  0  0  0  0  0
   26.0129   36.6309  101.9872 C   0  0  0  0  0  0  0  0  0  0  0  0
   27.3249   36.3136  102.0167 N   0  0  0  0  0  0  0  0  0  0  0  0
   27.8746   39.5790   96.1202 O   0  0  0  0  0  0  0  0  0  0  0  0
  1  2  1  0
  1  3  1  0
  1 10  1  6
  2 34  1  0
  3  4  1  0
  4  5  2  0
  4  6  1  0
  5  7  1  0
  6  8  2  0
  7  9  2  0
  8  9  1  0
  9 11  1  0
 12 13  1  0
 12 14  2  0
 12 16  1  0
 12 34  1  0
 17 15  1  6
 15 16  1  0
 17 18  1  0
 17 19  1  0
 18 23  1  0
 19 20  1  1
 19 21  1  0
 21 22  1  1
 21 23  1  0
 23 33  1  6
 24 25  2  0
 24 29  1  0
 25 26  1  0
 26 27  2  0
 27 28  1  0
 27 33  1  0
 28 29  2  0
 28 31  1  0
 29 30  1  0
 31 32  2  0
 32 33  1  0
M  CHG  1  11  -1
M  END
$$$$
