
     RDKit          3D

 34 37  0  0  0  0  0  0  0  0999 V2000
   27.9624   40.8104   95.9108 C   0  0  2  0  0  0  0  0  0  0  0  0
   26.5448   40.3599   96.2486 C   0  0  0  0  0  0  0  0  0  0  0  0
   28.2209   42.2717   96.2475 C   0  0  0  0  0  0  0  0  0  0  0  0
   29.3186   42.9375   95.3600 C   0  0  0  0  0  0  0  0  0  0  0  0
   29.0766   44.1560   94.7593 C   0  0  0  0  0  0  0  0  0  0  0  0
   30.5486   42.2971   95.1566 C   0  0  0  0  0  0  0  0  0  0  0  0
   30.0608   44.7304   93.9688 C   0  0  0  0  0  0  0  0  0  0  0  0
   31.5270   42.8749   94.3754 C   0  0  0  0  0  0  0  0  0  0  0  0
   31.2769   44.0993   93.7719 C   0  0  0  0  0  0  0  0  0  0  0  0
   28.1731   40.5834   94.4775 N   0  0  0  0  0  0  0  0  0  0  0  0
   32.2202   44.6914   92.9893 O   0  0  0  0  0  0  0  0  0  0  0  0
   25.8640   40.2658   98.6255 P   0  0  0  0  0  0  0  0  0  0  0  0
   24.9401   39.2288   99.4422 O   0  0  0  0  0  0  0  0  0  0  0  0
   25.1038   41.5733   98.3646 O   0  0  0  0  0  0  0  0  0  0  0  0
   27.4203   39.9597  100.7009 C   0  0  0  0  0  0  0  0  0  0  0  0
   27.2181   40.5222   99.4166 O   0  0  0  0  0  0  0  0  0  0  0  0
   28.7087   39.1886  100.7723 C   0  0  1  0  0  0  0  0  0  0  0  0
   28.6188   38.2374  101.8571 O   0  0  0  0  0  0  0  0  0  0  0  0
   29.0279   38.3654   99.5414 C   0  0  1  0  0  0  0  0  0  0  0  0
   30.4304   38.0996   99.5097 O   0  0  0  0  0  0  0  0  0  0  0  0
   28.2633   37.0738   99.8226 C   0  0  1  0  0  0  0  0  0  0  0  0
   28.7318   35.9401   99.1229 O   0  0  0  0  0  0  0  0  0  0  0  0
   28.4405   36.9260  101.3362 C   0  0  2  0  0  0  0  0  0  0  0  0
   27.1605   33.2997  104.6849 N   0  0  0  0  0  0  0  0  0  0  0  0
   28.3680   33.6330  104.1993 C   0  0  0  0  0  0  0  0  0  0  0  0
   28.5368   34.6321  103.3056 N   0  0  0  0  0  0  0  0  0  0  0  0
   27.4476   35.3145  102.8972 C   0  0  0  0  0  0  0  0  0  0  0  0
   26.1704   35.0076  103.3810 C   0  0  0  0  0  0  0  0  0  0  0  0
   26.0517   33.9609  104.3098 C   0  0  0  0  0  0  0  0  0  0  0  0
   24.7866   33.6085  104.8324 N   0  0  0  0  0  0  0  0  0  0  0  0
   25.2901   35.8595  102.7754 N   0  0  0  0  0  0  0  0  0  0  0  0
   25.9932   36.6680  101.9587 C   0  0  0  0  0  0  0  0  0  0  0  0
   27.2957   36.3217  102.0190 N   0  0  0  0  0  0  0  0  0  0  0  0
   26.3594   39.5900   97.2825 O   0  0  0  0  0  0  0  0  0  0  0  0
  1  2  1  0
  1  3  1  0
  1 10  1  6
  2 34  1  0
  3  4  1  0
  4  5  2  0
  4  6  1  0
  5  7  1  0
  6  8  2  0
  7  9  2  0
  8  9  1  0
  9 11  1  0
 12 13  1  0
 12 14  2  0
 12 16  1  0
 12 34  1  0
 17 15  1  6
 15 16  1  0
 17 18  1  0
 17 19  1  0
 18 23  1  0
 19 20  1  1
 19 21  1  0
 21 22  1  6
 21 23  1  0
 23 33  1  1
 24 25  2  0
 24 29  1  0
 25 26  1  0
 26 27  2  0
 27 28  1  0
 27 33  1  0
 28 29  2  0
 28 31  1  0
 29 30  1  0
 31 32  2  0
 32 33  1  0
M  CHG  1  11  -1
M  END
$$$$
