
     RDKit          3D

 35 38  0  0  0  0  0  0  0  0999 V2000
   28.2959   39.7209   93.5158 N   0  0  0  0  0  0  0  0  0  0  0  0
   28.5700   40.0104   94.9278 C   0  0  2  0  0  0  0  0  0  0  0  0
   27.2398   40.0385   95.6562 C   0  0  0  0  0  0  0  0  0  0  0  0
   26.1680   40.2983   95.1098 O   0  0  0  0  0  0  0  0  0  0  0  0
   27.2999   39.7601   97.0038 N   0  0  0  0  0  0  0  0  0  0  0  0
   25.0684   39.5591   97.9344 O   0  0  0  0  0  0  0  0  0  0  0  0
   26.3136   41.6556   98.3251 O   0  0  0  0  0  0  0  0  0  0  0  0
   29.1684   41.4053   95.1091 C   0  0  0  0  0  0  0  0  0  0  0  0
   26.2889   40.2511   98.1389 S   0  0  2  0  0  0  0  0  0  0  0  0
   30.4094   41.6541   94.2897 C   0  0  0  0  0  0  0  0  0  0  0  0
   31.5410   40.8560   94.4387 C   0  0  0  0  0  0  0  0  0  0  0  0
   30.4483   42.6933   93.3685 C   0  0  0  0  0  0  0  0  0  0  0  0
   32.6891   41.1025   93.7022 C   0  0  0  0  0  0  0  0  0  0  0  0
   31.5746   42.9212   92.5995 C   0  0  0  0  0  0  0  0  0  0  0  0
   32.6995   42.1257   92.7651 C   0  0  0  0  0  0  0  0  0  0  0  0
   33.7873   42.3316   91.9771 O   0  0  0  0  0  0  0  0  0  0  0  0
   28.2860   40.0810   99.8100 C   0  0  0  0  0  0  0  0  0  0  0  0
   26.9469   39.6093   99.4387 O   0  0  0  0  0  0  0  0  0  0  0  0
   29.0777   38.8708  100.2458 C   0  0  1  0  0  0  0  0  0  0  0  0
   28.4610   38.2682  101.4079 O   0  0  0  0  0  0  0  0  0  0  0  0
   29.2070   37.7542   99.2030 C   0  0  1  0  0  0  0  0  0  0  0  0
   30.5435   37.2577   99.1864 O   0  0  0  0  0  0  0  0  0  0  0  0
   28.2140   36.7114   99.7029 C   0  0  1  0  0  0  0  0  0  0  0  0
   28.5229   35.3864   99.3181 O   0  0  0  0  0  0  0  0  0  0  0  0
   28.4024   36.8726  101.2019 C   0  0  2  0  0  0  0  0  0  0  0  0
   27.1515   33.3057  104.6845 N   0  0  0  0  0  0  0  0  0  0  0  0
   28.3284   33.6769  104.1651 C   0  0  0  0  0  0  0  0  0  0  0  0
   28.5838   34.6551  103.2884 N   0  0  0  0  0  0  0  0  0  0  0  0
   27.4596   35.2828  102.9223 C   0  0  0  0  0  0  0  0  0  0  0  0
   26.1740   35.0154  103.3748 C   0  0  0  0  0  0  0  0  0  0  0  0
   26.0326   33.9608  104.2989 C   0  0  0  0  0  0  0  0  0  0  0  0
   24.8486   33.5310  104.7585 N   0  0  0  0  0  0  0  0  0  0  0  0
   25.2584   35.8740  102.7862 N   0  0  0  0  0  0  0  0  0  0  0  0
   25.9943   36.6183  101.9939 C   0  0  0  0  0  0  0  0  0  0  0  0
   27.3315   36.3080  102.0170 N   0  0  0  0  0  0  0  0  0  0  0  0
  2  1  1  6
  2  3  1  0
  2  8  1  0
  3  4  1  0
  3  5  2  3
  5  9  1  0
  6  9  2  0
  7  9  2  0
  8 10  1  0
  9 18  1  1
 10 11  2  0
 10 12  1  0
 11 13  1  0
 12 14  2  0
 13 15  2  0
 14 15  1  0
 15 16  1  0
 19 17  1  6
 17 18  1  0
 19 20  1  0
 19 21  1  0
 20 25  1  0
 21 22  1  1
 21 23  1  0
 23 24  1  6
 23 25  1  0
 25 35  1  1
 26 31  2  0
 26 27  1  0
 27 28  2  0
 28 29  1  0
 29 30  2  0
 29 35  1  0
 30 31  1  0
 30 33  1  0
 31 32  1  0
 33 34  2  0
 34 35  1  0
M  END
$$$$
