
     RDKit          3D

 37 40  0  0  0  0  0  0  0  0999 V2000
   26.9796   39.9716   93.4652 N   0  0  0  0  0  0  0  0  0  0  0  0
   27.3367   40.2146   94.8752 C   0  0  2  0  0  0  0  0  0  0  0  0
   26.1252   39.9792   95.7541 C   0  0  0  0  0  0  0  0  0  0  0  0
   24.9576   39.8944   95.3937 O   0  0  0  0  0  0  0  0  0  0  0  0
   27.7147   41.6741   95.1782 C   0  0  0  0  0  0  0  0  0  0  0  0
   26.4749   30.9723  105.1423 O   0  0  0  0  0  0  0  0  0  0  0  0
   27.4133   40.0598   99.7390 C   0  0  0  0  0  0  0  0  0  0  0  0
   26.2599   39.2243   99.4554 O   0  0  0  0  0  0  0  0  0  0  0  0
   28.5313   39.1494  100.1810 C   0  0  1  0  0  0  0  0  0  0  0  0
   28.1380   38.4657  101.3942 O   0  0  0  0  0  0  0  0  0  0  0  0
   28.9344   38.0565   99.1847 C   0  0  1  0  0  0  0  0  0  0  0  0
   30.3447   37.8414   99.1722 O   0  0  0  0  0  0  0  0  0  0  0  0
   28.2206   36.8191   99.7278 C   0  0  1  0  0  0  0  0  0  0  0  0
   28.9188   35.6119   99.4715 O   0  0  0  0  0  0  0  0  0  0  0  0
   28.3182   37.0717  101.2268 C   0  0  2  0  0  0  0  0  0  0  0  0
   28.3921   33.5949  104.2335 C   0  0  0  0  0  0  0  0  0  0  0  0
   24.3100   38.7642   98.0256 O   0  0  0  0  0  0  0  0  0  0  0  0
   27.1296   33.2785  104.7262 C   0  0  0  0  0  0  0  0  0  0  0  0
   26.9607   32.1688  105.7331 C   0  0  0  0  0  0  0  0  0  0  0  0
   25.0153   41.0861   98.5029 O   0  0  0  0  0  0  0  0  0  0  0  0
   26.0250   33.9929  104.2811 C   0  0  0  0  0  0  0  0  0  0  0  0
   26.4047   39.8721   97.0998 N   0  0  0  0  0  0  0  0  0  0  0  0
   28.7428   42.2778   94.2648 C   0  0  0  0  0  0  0  0  0  0  0  0
   26.1937   35.0190  103.3569 C   0  0  0  0  0  0  0  0  0  0  0  0
   30.0623   41.8447   94.2871 C   0  0  0  0  0  0  0  0  0  0  0  0
   27.4735   35.3254  102.8747 C   0  0  0  0  0  0  0  0  0  0  0  0
   31.0296   42.4483   93.5051 C   0  0  0  0  0  0  0  0  0  0  0  0
   28.6039   34.6132  103.2913 C   0  0  0  0  0  0  0  0  0  0  0  0
   29.8897   34.8219  102.8026 N   0  0  0  0  0  0  0  0  0  0  0  0
   30.6821   43.5052   92.6790 C   0  0  0  0  0  0  0  0  0  0  0  0
   27.2945   36.3749  101.9967 N   0  0  0  0  0  0  0  0  0  0  0  0
   25.9508   36.6379  101.9905 C   0  0  0  0  0  0  0  0  0  0  0  0
   31.6263   44.1354   91.9169 O   0  0  0  0  0  0  0  0  0  0  0  0
   29.3656   43.9407   92.6286 C   0  0  0  0  0  0  0  0  0  0  0  0
   25.2508   35.8604  102.7800 N   0  0  0  0  0  0  0  0  0  0  0  0
   28.4128   43.3253   93.4181 C   0  0  0  0  0  0  0  0  0  0  0  0
   25.3295   39.7237   98.2620 S   0  0  1  0  0  0  0  0  0  0  0  0
  2  1  1  6
  2  3  1  0
  2  5  1  0
  3  4  1  0
  3 22  2  3
  5 23  1  0
  6 19  1  0
  7  8  1  0
  9  7  1  6
 37  8  1  1
  9 10  1  0
  9 11  1  0
 10 15  1  0
 11 12  1  1
 11 13  1  0
 13 14  1  1
 13 15  1  0
 15 31  1  1
 16 18  2  0
 16 28  1  0
 17 37  2  0
 18 19  1  0
 18 21  1  0
 20 37  2  0
 21 24  2  0
 22 37  1  0
 23 25  2  0
 23 36  1  0
 24 26  1  0
 24 35  1  0
 25 27  1  0
 26 28  2  0
 26 31  1  0
 27 30  2  0
 28 29  1  0
 30 33  1  0
 30 34  1  0
 31 32  1  0
 32 35  2  0
 34 36  2  0
M  END
$$$$
